api/pglib_opf_case4020_goc__api.m
%%%%%%%%%%%%%%%%%%%%%%%%%%%%%%%%%%%%%%%%%%%%%%%%%%%%%%%%%%%%%%%%%%%%%%%%%%%
%%%%                                                                  %%%%%
%%%%    IEEE PES Power Grid Library - Optimal Power Flow - v20.04     %%%%%
%%%%          (https://github.com/power-grid-lib/pglib-opf)           %%%%%
%%%%             Benchmark Group - Active Power Increase              %%%%%
%%%%                         12 - July - 2020                         %%%%%
%%%%                                                                  %%%%%
%%%%%%%%%%%%%%%%%%%%%%%%%%%%%%%%%%%%%%%%%%%%%%%%%%%%%%%%%%%%%%%%%%%%%%%%%%%
function mpc = pglib_opf_case4020_goc__api
mpc.version = '2';
mpc.baseMVA = 100.0;

%% bus data
%	bus_i	type	Pd	Qd	Gs	Bs	area	Vm	Va	baseKV	zone	Vmax	Vmin
mpc.bus = [
	35308	 2	 0.0	 0.0	 0.0	 0.0	 1	    1.00000	    0.00000	 500.0	 1	    1.10000	    0.90000;
	35309	 2	 0.0	 0.0	 0.0	 0.0	 1	    1.00000	    0.00000	 500.0	 1	    1.10000	    0.90000;
	35310	 2	 0.0	 0.0	 0.0	 0.0	 1	    1.00000	    0.00000	 500.0	 1	    1.10000	    0.90000;
	35311	 2	 0.0	 0.0	 0.0	 0.0	 1	    1.00000	    0.00000	 500.0	 1	    1.10000	    0.90000;
	35312	 1	 0.0	 0.0	 0.0	 0.0	 1	    1.00000	    0.00000	 500.0	 1	    1.10000	    0.90000;
	35313	 1	 0.0	 0.0	 0.0	 0.0	 1	    1.00000	    0.00000	 500.0	 1	    1.10000	    0.90000;
	35314	 1	 0.0	 0.0	 0.0	 0.0	 1	    1.00000	    0.00000	 500.0	 1	    1.10000	    0.90000;
	35315	 1	 0.0	 0.0	 0.0	 0.0	 1	    1.00000	    0.00000	 500.0	 1	    1.10000	    0.90000;
	35316	 2	 0.0	 0.0	 0.0	 0.0	 1	    1.00000	    0.00000	 500.0	 1	    1.10000	    0.90000;
	35317	 1	 0.0	 0.0	 0.0	 0.0	 1	    1.00000	    0.00000	 500.0	 1	    1.10000	    0.90000;
	35318	 1	 0.0	 0.0	 0.0	 0.0	 1	    1.00000	    0.00000	 500.0	 1	    1.10000	    0.90000;
	35319	 1	 0.0	 0.0	 0.0	 0.0	 1	    1.00000	    0.00000	 500.0	 1	    1.10000	    0.90000;
	35320	 1	 0.0	 0.0	 0.0	 0.0	 1	    1.00000	    0.00000	 500.0	 1	    1.10000	    0.90000;
	35321	 1	 0.0	 0.0	 0.0	 0.0	 1	    1.00000	    0.00000	 500.0	 1	    1.10000	    0.90000;
	35322	 2	 0.0	 0.0	 0.0	 0.0	 1	    1.00000	    0.00000	 500.0	 1	    1.10000	    0.90000;
	35323	 2	 0.0	 0.0	 0.0	 0.0	 1	    1.00000	    0.00000	 500.0	 1	    1.10000	    0.90000;
	35324	 1	 0.0	 0.0	 0.0	 0.0	 1	    1.00000	    0.00000	 500.0	 1	    1.10000	    0.90000;
	35325	 1	 0.0	 0.0	 0.0	 0.0	 1	    1.00000	    0.00000	 500.0	 1	    1.10000	    0.90000;
	35326	 2	 0.0	 0.0	 0.0	 0.0	 1	    1.00000	    0.00000	 138.0	 1	    1.10000	    0.90000;
	35327	 1	 0.0	 0.0	 0.0	 0.0	 1	    1.00000	    0.00000	 500.0	 1	    1.10000	    0.90000;
	35328	 1	 0.0	 0.0	 0.0	 0.0	 1	    1.00000	    0.00000	 138.0	 1	    1.10000	    0.90000;
	35329	 1	 0.0	 0.0	 0.0	 0.0	 1	    1.00000	    0.00000	 500.0	 1	    1.10000	    0.90000;
	35330	 2	 0.0	 0.0	 0.0	 0.0	 1	    1.00000	    0.00000	 138.0	 1	    1.10000	    0.90000;
	35331	 2	 0.0	 0.0	 0.0	 0.0	 1	    1.00000	    0.00000	 138.0	 1	    1.10000	    0.90000;
	35332	 2	 0.0	 0.0	 0.0	 0.0	 1	    1.00000	    0.00000	 138.0	 1	    1.10000	    0.90000;
	35333	 2	 0.0	 0.0	 0.0	 0.0	 1	    1.00000	    0.00000	 500.0	 1	    1.10000	    0.90000;
	35334	 1	 0.0	 0.0	 0.0	 0.0	 1	    1.00000	    0.00000	 230.0	 1	    1.10000	    0.90000;
	35335	 2	 0.0	 0.0	 0.0	 0.0	 1	    1.00000	    0.00000	 138.0	 1	    1.10000	    0.90000;
	35336	 2	 0.0	 0.0	 0.0	 0.0	 1	    1.00000	    0.00000	 138.0	 1	    1.10000	    0.90000;
	35337	 2	 0.0	 0.0	 0.0	 0.0	 1	    1.00000	    0.00000	 138.0	 1	    1.10000	    0.90000;
	35338	 1	 0.0	 0.0	 0.0	 0.0	 1	    1.00000	    0.00000	 345.0	 1	    1.10000	    0.90000;
	35339	 1	 0.0	 0.0	 0.0	 0.0	 1	    1.00000	    0.00000	 500.0	 1	    1.10000	    0.90000;
	35340	 1	 0.0	 0.0	 0.0	 0.0	 1	    1.00000	    0.00000	 345.0	 1	    1.10000	    0.90000;
	35341	 1	 0.0	 0.0	 0.0	 0.0	 1	    1.00000	    0.00000	 500.0	 1	    1.10000	    0.90000;
	35342	 1	 0.0	 0.0	 0.0	 0.0	 1	    1.00000	    0.00000	 138.0	 1	    1.10000	    0.90000;
	35377	 1	 0.0	 0.0	 0.0	 0.0	 1	    1.00000	    0.00000	 500.0	 1	    1.10000	    0.90000;
	35378	 1	 0.0	 0.0	 0.0	 0.0	 1	    1.00000	    0.00000	 500.0	 1	    1.10000	    0.90000;
	35379	 2	 0.0	 0.0	 0.0	 0.0	 1	    1.00000	    0.00000	 500.0	 1	    1.10000	    0.90000;
	35380	 1	 0.0	 0.0	 0.0	 0.0	 1	    1.00000	    0.00000	 500.0	 1	    1.10000	    0.90000;
	35381	 1	 0.0	 0.0	 0.0	 0.0	 1	    1.00000	    0.00000	 500.0	 1	    1.10000	    0.90000;
	35382	 2	 0.0	 0.0	 0.0	 0.0	 1	    1.00000	    0.00000	 500.0	 1	    1.10000	    0.90000;
	35383	 1	 0.0	 0.0	 0.0	 0.0	 1	    1.00000	    0.00000	 500.0	 1	    1.10000	    0.90000;
	35384	 1	 0.0	 0.0	 0.0	 0.0	 1	    1.00000	    0.00000	 500.0	 1	    1.10000	    0.90000;
	35385	 2	 0.0	 0.0	 0.0	 0.0	 1	    1.00000	    0.00000	 500.0	 1	    1.10000	    0.90000;
	35386	 1	 0.0	 0.0	 0.0	 0.0	 1	    1.00000	    0.00000	 500.0	 1	    1.10000	    0.90000;
	35387	 2	 0.0	 0.0	 0.0	 0.0	 1	    1.00000	    0.00000	 500.0	 1	    1.10000	    0.90000;
	35388	 1	 0.0	 0.0	 0.0	 0.0	 1	    1.00000	    0.00000	 500.0	 1	    1.10000	    0.90000;
	35389	 2	 0.0	 0.0	 0.0	 0.0	 1	    1.00000	    0.00000	 500.0	 1	    1.10000	    0.90000;
	35390	 1	 0.0	 0.0	 0.0	 0.0	 1	    1.00000	    0.00000	 345.0	 1	    1.10000	    0.90000;
	35391	 2	 0.0	 0.0	 0.0	 0.0	 1	    1.00000	    0.00000	 138.0	 1	    1.10000	    0.90000;
	35392	 1	 0.0	 0.0	 0.0	 0.0	 1	    1.00000	    0.00000	 500.0	 1	    1.10000	    0.90000;
	35393	 1	 0.0	 0.0	 0.0	 0.0	 1	    1.00000	    0.00000	 138.0	 1	    1.10000	    0.90000;
	35394	 2	 0.0	 0.0	 0.0	 0.0	 1	    1.00000	    0.00000	 500.0	 1	    1.10000	    0.90000;
	35395	 1	 0.0	 0.0	 0.0	 0.0	 1	    1.00000	    0.00000	 500.0	 1	    1.10000	    0.90000;
	35396	 2	 0.0	 0.0	 0.0	 0.0	 1	    1.00000	    0.00000	 138.0	 1	    1.10000	    0.90000;
	35397	 2	 0.0	 0.0	 0.0	 0.0	 1	    1.00000	    0.00000	 69.0	 1	    1.10000	    0.90000;
	35398	 2	 0.0	 0.0	 0.0	 0.0	 1	    1.00000	    0.00000	 138.0	 1	    1.10000	    0.90000;
	35399	 2	 0.0	 0.0	 0.0	 0.0	 1	    1.00000	    0.00000	 138.0	 1	    1.10000	    0.90000;
	35400	 1	 0.0	 0.0	 0.0	 0.0	 1	    1.00000	    0.00000	 500.0	 1	    1.10000	    0.90000;
	35401	 2	 0.0	 0.0	 0.0	 0.0	 1	    1.00000	    0.00000	 138.0	 1	    1.10000	    0.90000;
	35402	 1	 0.0	 0.0	 0.0	 0.0	 1	    1.00000	    0.00000	 500.0	 1	    1.10000	    0.90000;
	35403	 2	 0.0	 0.0	 0.0	 0.0	 1	    1.00000	    0.00000	 138.0	 1	    1.10000	    0.90000;
	35404	 1	 0.0	 0.0	 0.0	 0.0	 1	    1.00000	    0.00000	 138.0	 1	    1.10000	    0.90000;
	35405	 1	 0.0	 0.0	 0.0	 0.0	 1	    1.00000	    0.00000	 230.0	 1	    1.10000	    0.90000;
	35406	 2	 0.0	 0.0	 0.0	 0.0	 1	    1.00000	    0.00000	 138.0	 1	    1.10000	    0.90000;
	35407	 1	 0.0	 0.0	 0.0	 0.0	 1	    1.00000	    0.00000	 345.0	 1	    1.10000	    0.90000;
	35408	 2	 0.0	 0.0	 0.0	 0.0	 1	    1.00000	    0.00000	 138.0	 1	    1.10000	    0.90000;
	35409	 2	 0.0	 0.0	 0.0	 0.0	 1	    1.00000	    0.00000	 138.0	 1	    1.10000	    0.90000;
	35410	 2	 0.0	 0.0	 0.0	 0.0	 1	    1.00000	    0.00000	 138.0	 1	    1.10000	    0.90000;
	35411	 1	 0.0	 0.0	 0.0	 0.0	 1	    1.00000	    0.00000	 500.0	 1	    1.10000	    0.90000;
	35412	 2	 0.0	 0.0	 0.0	 0.0	 1	    1.00000	    0.00000	 138.0	 1	    1.10000	    0.90000;
	35413	 2	 0.0	 0.0	 0.0	 0.0	 1	    1.00000	    0.00000	 69.0	 1	    1.10000	    0.90000;
	35414	 1	 0.0	 0.0	 0.0	 0.0	 1	    1.00000	    0.00000	 500.0	 1	    1.10000	    0.90000;
	35415	 2	 0.0	 0.0	 0.0	 0.0	 1	    1.00000	    0.00000	 69.0	 1	    1.10000	    0.90000;
	35416	 2	 0.0	 0.0	 0.0	 0.0	 1	    1.00000	    0.00000	 138.0	 1	    1.10000	    0.90000;
	35417	 2	 0.0	 0.0	 0.0	 0.0	 1	    1.00000	    0.00000	 138.0	 1	    1.10000	    0.90000;
	35418	 2	 0.0	 0.0	 0.0	 0.0	 1	    1.00000	    0.00000	 69.0	 1	    1.10000	    0.90000;
	35419	 2	 0.0	 0.0	 0.0	 0.0	 1	    1.00000	    0.00000	 138.0	 1	    1.10000	    0.90000;
	35420	 2	 0.0	 0.0	 0.0	 0.0	 1	    1.00000	    0.00000	 69.0	 1	    1.10000	    0.90000;
	35421	 2	 0.0	 0.0	 0.0	 0.0	 1	    1.00000	    0.00000	 138.0	 1	    1.10000	    0.90000;
	35422	 2	 0.0	 0.0	 0.0	 0.0	 1	    1.00000	    0.00000	 69.0	 1	    1.10000	    0.90000;
	35423	 1	 0.0	 0.0	 0.0	 0.0	 1	    1.00000	    0.00000	 138.0	 1	    1.10000	    0.90000;
	36603	 1	 5.46	 0.74	 0.0	 0.0	 1	    1.00000	    0.00000	 69.0	 1	    1.10000	    0.90000;
	36604	 1	 8.95	 2.13	 0.0	 0.0	 1	    1.00000	    0.00000	 69.0	 1	    1.10000	    0.90000;
	36605	 1	 8.39	 2.04	 0.0	 0.0	 1	    1.00000	    0.00000	 69.0	 1	    1.10000	    0.90000;
	36606	 1	 0.0	 0.0	 0.0	 0.0	 1	    1.00000	    0.00000	 138.0	 1	    1.10000	    0.90000;
	36607	 1	 0.0	 0.0	 0.0	 0.0	 1	    1.00000	    0.00000	 138.0	 1	    1.10000	    0.90000;
	36608	 1	 8.81	 2.13	 0.0	 0.0	 1	    1.00000	    0.00000	 69.0	 1	    1.10000	    0.90000;
	36609	 1	 4.90	 1.39	 0.0	 0.0	 1	    1.00000	    0.00000	 138.0	 1	    1.10000	    0.90000;
	36610	 1	 9.37	 2.87	 0.0	 0.0	 1	    1.00000	    0.00000	 69.0	 1	    1.10000	    0.90000;
	36611	 1	 7.41	 2.04	 0.0	 0.0	 1	    1.00000	    0.00000	 138.0	 1	    1.10000	    0.90000;
	36612	 1	 0.0	 0.0	 0.0	 0.0	 1	    1.00000	    0.00000	 138.0	 1	    1.10000	    0.90000;
	36613	 1	 0.0	 0.0	 0.0	 31.9999604565	 1	    1.00000	    0.00000	 138.0	 1	    1.10000	    0.90000;
	36614	 1	 4.20	 0.56	 0.0	 0.00040296557369	 1	    1.00000	    0.00000	 69.0	 1	    1.10000	    0.90000;
	36615	 1	 9.79	 0.93	 0.0	 0.0	 1	    1.00000	    0.00000	 69.0	 1	    1.10000	    0.90000;
	36616	 1	 0.0	 0.0	 0.0	 0.0	 1	    1.00000	    0.00000	 138.0	 1	    1.10000	    0.90000;
	36617	 1	 0.0	 0.0	 0.0	 0.0	 1	    1.00000	    0.00000	 138.0	 1	    1.10000	    0.90000;
	36618	 1	 31.47	 6.67	 0.0	 0.0	 1	    1.00000	    0.00000	 69.0	 1	    1.10000	    0.90000;
	36619	 1	 5.59	 1.58	 0.0	 0.0	 1	    1.00000	    0.00000	 138.0	 1	    1.10000	    0.90000;
	36620	 1	 8.53	 2.04	 0.0	 0.0	 1	    1.00000	    0.00000	 69.0	 1	    1.10000	    0.90000;
	36621	 1	 21.68	 6.30	 0.0	 0.0	 1	    1.00000	    0.00000	 69.0	 1	    1.10000	    0.90000;
	36622	 1	 5.32	 1.30	 0.0	 0.0	 1	    1.00000	    0.00000	 69.0	 1	    1.10000	    0.90000;
	36623	 1	 0.0	 0.0	 0.0	 0.0	 1	    1.00000	    0.00000	 500.0	 1	    1.10000	    0.90000;
	36624	 1	 11.75	 2.69	 0.0	 0.0	 1	    1.00000	    0.00000	 69.0	 1	    1.10000	    0.90000;
	36625	 1	 25.74	 6.39	 0.0	 0.0	 1	    1.00000	    0.00000	 69.0	 1	    1.10000	    0.90000;
	36626	 1	 12.87	 2.97	 0.0	 0.0	 1	    1.00000	    0.00000	 69.0	 1	    1.10000	    0.90000;
	36627	 1	 0.0	 0.0	 0.0	 0.0	 1	    1.00000	    0.00000	 500.0	 1	    1.10000	    0.90000;
	36628	 1	 0.0	 0.0	 0.0	 0.0	 1	    1.00000	    0.00000	 138.0	 1	    1.10000	    0.90000;
	36629	 1	 0.0	 0.0	 0.0	 0.0	 1	    1.00000	    0.00000	 138.0	 1	    1.10000	    0.90000;
	36630	 1	 0.0	 0.0	 0.0	 0.0	 1	    1.00000	    0.00000	 230.0	 1	    1.10000	    0.90000;
	36631	 1	 0.0	 0.0	 0.0	 0.0	 1	    1.00000	    0.00000	 138.0	 1	    1.10000	    0.90000;
	36632	 1	 11.89	 3.43	 0.0	 0.0	 1	    1.00000	    0.00000	 69.0	 1	    1.10000	    0.90000;
	36633	 1	 0.0	 0.0	 0.0	 0.0	 1	    1.00000	    0.00000	 138.0	 1	    1.10000	    0.90000;
	36634	 1	 5.59	 1.48	 0.0	 0.0	 1	    1.00000	    0.00000	 69.0	 1	    1.10000	    0.90000;
	36635	 1	 0.0	 0.0	 0.0	 0.0	 1	    1.00000	    0.00000	 138.0	 1	    1.10000	    0.90000;
	36636	 1	 18.46	 4.73	 0.0	 0.0	 1	    1.00000	    0.00000	 69.0	 1	    1.10000	    0.90000;
	36637	 1	 0.0	 0.0	 0.0	 0.0	 1	    1.00000	    0.00000	 138.0	 1	    1.10000	    0.90000;
	36638	 1	 18.88	 5.10	 0.0	 0.0	 1	    1.00000	    0.00000	 69.0	 1	    1.10000	    0.90000;
	36639	 1	 6.99	 1.85	 0.0	 0.0	 1	    1.00000	    0.00000	 69.0	 1	    1.10000	    0.90000;
	36640	 1	 4.90	 1.39	 0.0	 0.0	 1	    1.00000	    0.00000	 69.0	 1	    1.10000	    0.90000;
	36641	 1	 19.44	 3.98	 0.0	 0.0	 1	    1.00000	    0.00000	 69.0	 1	    1.10000	    0.90000;
	36642	 1	 0.0	 0.0	 0.0	 0.0	 1	    1.00000	    0.00000	 138.0	 1	    1.10000	    0.90000;
	36643	 1	 0.0	 0.0	 0.0	 0.0	 1	    1.00000	    0.00000	 138.0	 1	    1.10000	    0.90000;
	36644	 1	 9.65	 2.87	 0.0	 0.0	 1	    1.00000	    0.00000	 69.0	 1	    1.10000	    0.90000;
	36645	 1	 11.89	 2.78	 0.0	 0.0	 1	    1.00000	    0.00000	 69.0	 1	    1.10000	    0.90000;
	36646	 1	 39.73	 11.49	 0.0	 0.0	 1	    1.00000	    0.00000	 138.0	 1	    1.10000	    0.90000;
	36647	 1	 70.50	 14.46	 0.0	 0.0	 1	    1.00000	    0.00000	 345.0	 1	    1.10000	    0.90000;
	36648	 1	 0.0	 0.0	 0.0	 0.0	 1	    1.00000	    0.00000	 500.0	 1	    1.10000	    0.90000;
	36649	 1	 0.0	 0.0	 0.0	 0.0	 1	    1.00000	    0.00000	 138.0	 1	    1.10000	    0.90000;
	36650	 1	 34.69	 8.90	 0.0	 0.0	 1	    1.00000	    0.00000	 138.0	 1	    1.10000	    0.90000;
	36651	 1	 0.0	 0.0	 0.0	 0.0	 1	    1.00000	    0.00000	 138.0	 1	    1.10000	    0.90000;
	36652	 1	 16.37	 4.17	 0.0	 0.0	 1	    1.00000	    0.00000	 69.0	 1	    1.10000	    0.90000;
	36653	 1	 0.0	 0.0	 0.0	 0.0	 1	    1.00000	    0.00000	 500.0	 1	    1.10000	    0.90000;
	36654	 1	 25.74	 6.49	 0.0	 0.0	 1	    1.00000	    0.00000	 138.0	 1	    1.10000	    0.90000;
	36655	 1	 12.31	 3.52	 0.0	 0.0	 1	    1.00000	    0.00000	 138.0	 1	    1.10000	    0.90000;
	36656	 1	 16.23	 5.00	 0.0	 0.0	 1	    1.00000	    0.00000	 138.0	 1	    1.10000	    0.90000;
	36657	 1	 54.84	 12.61	 0.0	 0.0	 1	    1.00000	    0.00000	 138.0	 1	    1.10000	    0.90000;
	36658	 1	 0.0	 0.0	 0.0	 0.0	 1	    1.00000	    0.00000	 138.0	 1	    1.10000	    0.90000;
	36659	 1	 20.84	 5.84	 0.0	 0.0	 1	    1.00000	    0.00000	 138.0	 1	    1.10000	    0.90000;
	36660	 1	 0.0	 0.0	 0.0	 0.0	 1	    1.00000	    0.00000	 138.0	 1	    1.10000	    0.90000;
	36661	 1	 0.0	 0.0	 0.0	 0.0	 1	    1.00000	    0.00000	 138.0	 1	    1.10000	    0.90000;
	36662	 1	 9.37	 2.60	 0.0	 0.0	 1	    1.00000	    0.00000	 69.0	 1	    1.10000	    0.90000;
	36663	 1	 0.0	 0.0	 0.0	 0.0	 1	    1.00000	    0.00000	 138.0	 1	    1.10000	    0.90000;
	36664	 1	 22.52	 6.30	 0.0	 0.0	 1	    1.00000	    0.00000	 69.0	 1	    1.10000	    0.90000;
	36665	 1	 84.77	 20.11	 0.0	 0.0	 1	    1.00000	    0.00000	 138.0	 1	    1.10000	    0.90000;
	36666	 1	 12.45	 3.34	 0.0	 0.0	 1	    1.00000	    0.00000	 69.0	 1	    1.10000	    0.90000;
	36667	 1	 37.63	 8.71	 0.0	 0.0	 1	    1.00000	    0.00000	 138.0	 1	    1.10000	    0.90000;
	36668	 1	 0.0	 0.0	 0.0	 0.0	 1	    1.00000	    0.00000	 138.0	 1	    1.10000	    0.90000;
	36669	 1	 26.30	 7.23	 0.0	 0.0	 1	    1.00000	    0.00000	 138.0	 1	    1.10000	    0.90000;
	36670	 1	 12.17	 0.65	 0.0	 0.0	 1	    1.00000	    0.00000	 138.0	 1	    1.10000	    0.90000;
	36671	 1	 30.77	 4.45	 0.0	 0.0	 1	    1.00000	    0.00000	 69.0	 1	    1.10000	    0.90000;
	36672	 1	 15.39	 3.15	 0.0	 0.0	 1	    1.00000	    0.00000	 69.0	 1	    1.10000	    0.90000;
	36673	 1	 9.51	 2.32	 0.0	 0.0	 1	    1.00000	    0.00000	 69.0	 1	    1.10000	    0.90000;
	36674	 1	 0.0	 0.0	 0.0	 0.0	 1	    1.00000	    0.00000	 345.0	 1	    1.10000	    0.90000;
	36675	 1	 12.73	 3.71	 0.0	 0.0	 1	    1.00000	    0.00000	 69.0	 1	    1.10000	    0.90000;
	36676	 1	 10.77	 2.22	 0.0	 0.0	 1	    1.00000	    0.00000	 69.0	 1	    1.10000	    0.90000;
	36677	 1	 0.0	 0.0	 0.0	 0.0	 1	    1.00000	    0.00000	 138.0	 1	    1.10000	    0.90000;
	36678	 1	 13.71	 3.34	 0.0	 0.0	 1	    1.00000	    0.00000	 69.0	 1	    1.10000	    0.90000;
	36679	 1	 11.05	 3.15	 0.0	 0.0	 1	    1.00000	    0.00000	 69.0	 1	    1.10000	    0.90000;
	36680	 1	 12.03	 3.71	 0.0	 0.0	 1	    1.00000	    0.00000	 69.0	 1	    1.10000	    0.90000;
	36681	 1	 20.00	 5.47	 0.0	 0.0	 1	    1.00000	    0.00000	 69.0	 1	    1.10000	    0.90000;
	36682	 1	 21.12	 6.02	 0.0	 0.0	 1	    1.00000	    0.00000	 69.0	 1	    1.10000	    0.90000;
	36683	 1	 0.0	 0.0	 0.0	 0.0	 1	    1.00000	    0.00000	 138.0	 1	    1.10000	    0.90000;
	36684	 1	 69.10	 14.18	 0.0	 0.0	 1	    1.00000	    0.00000	 230.0	 1	    1.10000	    0.90000;
	36685	 1	 242.70	 44.12	 0.0	 0.0	 1	    1.00000	    0.00000	 500.0	 1	    1.10000	    0.90000;
	36686	 1	 20.42	 5.38	 0.0	 0.0	 1	    1.00000	    0.00000	 138.0	 1	    1.10000	    0.90000;
	36687	 1	 31.61	 7.41	 0.0	 0.0	 1	    1.00000	    0.00000	 138.0	 1	    1.10000	    0.90000;
	36688	 1	 28.68	 7.69	 0.0	 0.0	 1	    1.00000	    0.00000	 138.0	 1	    1.10000	    0.90000;
	36689	 1	 0.0	 0.0	 0.0	 0.0	 1	    1.00000	    0.00000	 138.0	 1	    1.10000	    0.90000;
	36690	 1	 22.10	 4.91	 0.0	 0.0	 1	    1.00000	    0.00000	 69.0	 1	    1.10000	    0.90000;
	36691	 1	 0.0	 0.0	 0.0	 0.0	 1	    1.00000	    0.00000	 500.0	 1	    1.10000	    0.90000;
	36692	 1	 12.45	 3.80	 0.0	 0.0	 1	    1.00000	    0.00000	 69.0	 1	    1.10000	    0.90000;
	36693	 1	 0.0	 0.0	 0.0	 0.0	 1	    1.00000	    0.00000	 138.0	 1	    1.10000	    0.90000;
	36694	 1	 14.83	 3.98	 0.0	 0.0	 1	    1.00000	    0.00000	 500.0	 1	    1.10000	    0.90000;
	36695	 1	 0.0	 0.0	 0.0	 0.0	 1	    1.00000	    0.00000	 500.0	 1	    1.10000	    0.90000;
	36696	 1	 16.93	 4.63	 0.0	 0.0	 1	    1.00000	    0.00000	 138.0	 1	    1.10000	    0.90000;
	36697	 1	 4.62	 1.21	 0.0	 0.0	 1	    1.00000	    0.00000	 69.0	 1	    1.10000	    0.90000;
	36698	 1	 7.55	 2.41	 0.0	 0.0	 1	    1.00000	    0.00000	 138.0	 1	    1.10000	    0.90000;
	36699	 1	 0.0	 0.0	 0.0	 0.0	 1	    1.00000	    0.00000	 138.0	 1	    1.10000	    0.90000;
	36700	 1	 3.36	 0.93	 0.0	 0.0	 1	    1.00000	    0.00000	 138.0	 1	    1.10000	    0.90000;
	36701	 1	 4.06	 1.21	 0.0	 0.0	 1	    1.00000	    0.00000	 138.0	 1	    1.10000	    0.90000;
	36702	 1	 0.0	 0.0	 0.0	 0.0	 1	    1.00000	    0.00000	 138.0	 1	    1.10000	    0.90000;
	36703	 1	 18.88	 4.36	 0.0	 0.0	 1	    1.00000	    0.00000	 138.0	 1	    1.10000	    0.90000;
	36704	 1	 0.0	 0.0	 0.0	 0.0	 1	    1.00000	    0.00000	 138.0	 1	    1.10000	    0.90000;
	36705	 1	 0.0	 0.0	 0.0	 0.0	 1	    1.00000	    0.00000	 138.0	 1	    1.10000	    0.90000;
	36706	 1	 11.89	 3.06	 0.0	 0.0	 1	    1.00000	    0.00000	 69.0	 1	    1.10000	    0.90000;
	36707	 1	 5.18	 1.48	 0.0	 0.0	 1	    1.00000	    0.00000	 69.0	 1	    1.10000	    0.90000;
	36708	 1	 8.81	 2.78	 0.0	 0.0	 1	    1.00000	    0.00000	 69.0	 1	    1.10000	    0.90000;
	36709	 1	 13.29	 3.98	 0.0	 0.0	 1	    1.00000	    0.00000	 69.0	 1	    1.10000	    0.90000;
	36710	 1	 12.31	 3.71	 0.0	 0.0	 1	    1.00000	    0.00000	 69.0	 1	    1.10000	    0.90000;
	36711	 1	 0.0	 0.0	 0.0	 0.0	 1	    1.00000	    0.00000	 138.0	 1	    1.10000	    0.90000;
	36712	 1	 9.93	 3.06	 0.0	 0.0	 1	    1.00000	    0.00000	 138.0	 1	    1.10000	    0.90000;
	36713	 1	 16.37	 4.54	 0.0	 0.0	 1	    1.00000	    0.00000	 69.0	 1	    1.10000	    0.90000;
	36714	 1	 11.61	 3.71	 0.0	 0.0	 1	    1.00000	    0.00000	 69.0	 1	    1.10000	    0.90000;
	36715	 1	 0.0	 0.0	 0.0	 0.0	 1	    1.00000	    0.00000	 138.0	 1	    1.10000	    0.90000;
	36716	 1	 0.0	 0.0	 0.0	 0.0	 1	    1.00000	    0.00000	 138.0	 1	    1.10000	    0.90000;
	36717	 1	 0.0	 0.0	 0.0	 0.0	 1	    1.00000	    0.00000	 138.0	 1	    1.10000	    0.90000;
	36718	 1	 0.0	 0.0	 0.0	 0.0	 1	    1.00000	    0.00000	 138.0	 1	    1.10000	    0.90000;
	36719	 1	 7.69	 1.95	 0.0	 0.0	 1	    1.00000	    0.00000	 69.0	 1	    1.10000	    0.90000;
	36720	 1	 0.0	 0.0	 0.0	 0.0	 1	    1.00000	    0.00000	 138.0	 1	    1.10000	    0.90000;
...
];

%% generator data
%	bus	Pg	Qg	Qmax	Qmin	Vg	mBase	status	Pmax	Pmin
mpc.gen = [
	35308	 1055.0	 0.0	 1034.4	 -1034.4	 1.0	 100.0	 1	 1890	 220.0; % COW
	35309	 1021.0	 0.0	 842.4	 -842.4	 1.0	 100.0	 1	 1674	 368.0; % COW
	35310	 156.0	 0.0	 426.0	 -426.0	 1.0	 100.0	 1	 272	 40.0; % NG
	35310	 317.75	 0.0	 426.0	 -426.0	 1.0	 100.0	 1	 565	 70.5; % NG
	35311	 622.75	 0.0	 584.0	 -584.0	 1.0	 100.0	 1	 1167	 78.5; % COW
	35311	 486.25	 0.0	 448.0	 -448.0	 1.0	 100.0	 1	 895	 77.5; % COW
	35311	 530.75	 0.0	 493.0	 -493.0	 1.0	 100.0	 1	 985	 76.5; % COW
	35311	 513.5	 0.0	 476.0	 -476.0	 1.0	 100.0	 1	 952	 75.0; % COW
	35316	 1249.5	 0.0	 1175.0	 -1175.0	 1.0	 100.0	 1	 2349	 150.0; % COW
	35322	 70.0	 0.0	 656.4	 -656.4	 1.0	 100.0	 1	 100	 40.0; % NG
	35323	 677.5	 0.0	 655.0	 -655.0	 1.0	 100.0	 1	 1310	 45.0; % NG
	35323	 745.0	 0.0	 708.0	 -708.0	 1.0	 100.0	 1	 1415	 75.0; % COW
	35326	 159.5	 0.0	 155.0	 -155.0	 1.0	 100.0	 1	 309	 10.0; % NG
	35326	 104.0	 0.0	 94.0	 -94.0	 1.0	 100.0	 1	 188	 20.0; % NG
	35330	 17.0	 0.0	 17.0	 -17.0	 1.0	 100.0	 1	 33	 1.0; % NG
	35330	 34.0	 0.0	 34.0	 -34.0	 1.0	 100.0	 1	 67	 1.0; % NG
	35330	 40.5	 0.0	 40.0	 -40.0	 1.0	 100.0	 1	 80	 1.0; % NG
	35330	 64.0	 0.0	 64.0	 -64.0	 1.0	 100.0	 1	 127	 1.0; % NG
	35330	 17.5	 0.0	 17.0	 -17.0	 1.0	 100.0	 1	 34	 1.0; % PEL
	35330	 45.0	 0.0	 45.0	 -45.0	 1.0	 100.0	 1	 89	 1.0; % NG
	35330	 19.5	 0.0	 19.0	 -19.0	 1.0	 100.0	 1	 38	 1.0; % NG
	35330	 23.0	 0.0	 23.0	 -23.0	 1.0	 100.0	 1	 45	 1.0; % PEL
	35331	 91.25	 0.0	 82.0	 -82.0	 1.0	 100.0	 1	 164	 18.5; % NG
	35331	 97.75	 0.0	 89.0	 -89.0	 1.0	 100.0	 1	 177	 18.5; % NG
	35332	 182.5625	 0.0	 213.6	 -213.6	 1.0	 100.0	 1	 352	 13.125; % PEL
	35333	 496.75	 0.0	 482.0	 -482.0	 1.0	 100.0	 1	 963	 30.5; % PEL
	35335	 73.25	 0.0	 62.0	 -62.0	 1.0	 100.0	 1	 124	 22.5; % NG
	35335	 63.75	 0.0	 53.0	 -53.0	 1.0	 100.0	 1	 105	 22.5; % NG
	35335	 144.25	 0.0	 133.0	 -133.0	 1.0	 100.0	 1	 266	 22.5; % NG
	35335	 187.25	 0.0	 176.0	 -176.0	 1.0	 100.0	 1	 352	 22.5; % NG
	35335	 92.75	 0.0	 82.0	 -82.0	 1.0	 100.0	 1	 163	 22.5; % NG
	35335	 64.75	 0.0	 54.0	 -54.0	 1.0	 100.0	 1	 107	 22.5; % PEL
	35336	 94.725	 0.0	 90.0	 -90.0	 1.0	 100.0	 1	 180	 9.45; % NG
	35336	 100.725	 0.0	 96.0	 -96.0	 1.0	 100.0	 1	 192	 9.45; % NG
	35336	 67.225	 0.0	 63.0	 -63.0	 1.0	 100.0	 1	 125	 9.45; % NG
	35336	 111.725	 0.0	 107.0	 -107.0	 1.0	 100.0	 1	 214	 9.45; % NG
	35336	 79.225	 0.0	 75.0	 -75.0	 1.0	 100.0	 1	 149	 9.45; % NG
	35337	 137.25	 0.0	 132.0	 -132.0	 1.0	 100.0	 1	 263	 11.5; % NG
	35337	 179.25	 0.0	 159.0	 -159.0	 1.0	 100.0	 1	 318	 40.5; % NG
	35379	 882.425	 0.0	 601.0	 -601.0	 1.0	 100.0	 1	 1202	 562.85; % COW
	35382	 50.75	 0.0	 50.0	 -50.0	 1.0	 100.0	 1	 99	 2.5; % NG
	35382	 72.75	 0.0	 72.0	 -72.0	 1.0	 100.0	 1	 143	 2.5; % PEL
	35382	 76.25	 0.0	 75.0	 -75.0	 1.0	 100.0	 1	 150	 2.5; % NG
	35382	 44.25	 0.0	 43.0	 -43.0	 1.0	 100.0	 1	 86	 2.5; % PEL
	35382	 55.25	 0.0	 54.0	 -54.0	 1.0	 100.0	 1	 108	 2.5; % NG
	35382	 84.25	 0.0	 83.0	 -83.0	 1.0	 100.0	 1	 166	 2.5; % NG
	35382	 195.0	 3.4	 159.8	 -153.0	 1.0	 100.0	 1	 306	 84.0; % NG
	35382	 169.5	 33.9	 195.8	 -128.0	 1.0	 100.0	 1	 255	 84.0; % NG
	35382	 133.0	 0.0	 118.0	 -118.0	 1.0	 100.0	 1	 236	 30.0; % COW
	35385	 366.5	 0.0	 349.0	 -349.0	 1.0	 100.0	 1	 698	 35.0; % NG
	35385	 357.0	 0.0	 340.0	 -340.0	 1.0	 100.0	 1	 679	 35.0; % COW
	35385	 294.0	 0.0	 277.0	 -277.0	 1.0	 100.0	 1	 553	 35.0; % NG
	35387	 122.0	 0.0	 144.0	 -144.0	 1.0	 100.0	 1	 214	 30.0; % NG
	35387	 136.5	 0.0	 144.0	 -144.0	 1.0	 100.0	 1	 243	 30.0; % NG
	35387	 139.0	 0.0	 144.0	 -144.0	 1.0	 100.0	 1	 248	 30.0; % NG
	35387	 130.0	 0.0	 144.0	 -144.0	 1.0	 100.0	 1	 230	 30.0; % NG
	35387	 129.0	 0.0	 144.0	 -144.0	 1.0	 100.0	 1	 228	 30.0; % NG
	35387	 144.2	 -9.6	 124.8	 -144.0	 1.0	 100.0	 1	 240	 48.4; % NG
	35387	 159.0	 0.0	 144.0	 -144.0	 1.0	 100.0	 1	 288	 30.0; % NG
	35389	 180.0	 0.0	 175.2	 -175.2	 1.0	 100.0	 1	 318	 42.0; % COW
	35389	 106.5	 0.0	 175.2	 -175.2	 1.0	 100.0	 1	 171	 42.0; % NG
	35389	 160.25	 0.0	 175.2	 -175.2	 1.0	 100.0	 1	 283	 37.5; % NG
	35389	 209.75	 0.0	 191.0	 -191.0	 1.0	 100.0	 1	 382	 37.5; % NG
	35391	 3.0	 0.0	 50.4	 -50.4	 1.0	 100.0	 1	 5	 1.0; % PEL
	35391	 6.0	 0.0	 50.4	 -50.4	 1.0	 100.0	 1	 11	 1.0; % NG
	35391	 3.5	 0.0	 50.4	 -50.4	 1.0	 100.0	 1	 6	 1.0; % NG
	35391	 5.5	 0.0	 50.4	 -50.4	 1.0	 100.0	 1	 10	 1.0; % NG
	35394	 66.75	 0.0	 242.4	 -242.4	 1.0	 100.0	 1	 116	 17.5; % NG
	35394	 57.75	 0.0	 242.4	 -242.4	 1.0	 100.0	 1	 98	 17.5; % PEL
	35394	 51.75	 0.0	 242.4	 -242.4	 1.0	 100.0	 1	 86	 17.5; % NG
	35396	 33.5	 0.0	 32.0	 -32.0	 1.0	 100.0	 1	 63	 4.0; % PEL
	35396	 32.5	 0.0	 31.0	 -31.0	 1.0	 100.0	 1	 61	 4.0; % NG
	35396	 30.0	 0.0	 28.0	 -28.0	 1.0	 100.0	 1	 56	 4.0; % PEL
	35397	 126.675	 0.0	 122.0	 -122.0	 1.0	 100.0	 1	 244	 9.35; % NG
	35398	 53.25	 0.0	 42.0	 -42.0	 1.0	 100.0	 1	 84	 22.5; % NG
	35398	 43.25	 0.0	 33.6	 -33.6	 1.0	 100.0	 1	 64	 22.5; % NG
	35398	 40.75	 0.0	 33.6	 -33.6	 1.0	 100.0	 1	 59	 22.5; % NG
	35399	 16.775	 3.05	 20.1	 -14.0	 1.0	 100.0	 1	 27	 6.55; % COW
	35399	 25.775	 1.15	 25.3	 -23.0	 1.0	 100.0	 1	 45	 6.55; % NG
	35401	 22.825	 0.0	 52.8	 -52.8	 1.0	 100.0	 1	 40	 5.65; % NG
	35401	 10.825	 0.0	 52.8	 -52.8	 1.0	 100.0	 1	 16	 5.65; % NG
	35401	 13.325	 0.0	 52.8	 -52.8	 1.0	 100.0	 1	 21	 5.65; % NG
	35401	 24.325	 0.0	 52.8	 -52.8	 1.0	 100.0	 1	 43	 5.65; % COW
	35403	 36.0	 0.0	 55.2	 -55.2	 1.0	 100.0	 1	 66	 6.0; % NG
	35403	 30.0	 0.0	 55.2	 -55.2	 1.0	 100.0	 1	 54	 6.0; % COW
	35403	 18.5	 0.0	 55.2	 -55.2	 1.0	 100.0	 1	 31	 6.0; % COW
	35406	 17.75	 0.0	 106.8	 -106.8	 1.0	 100.0	 1	 31	 4.5; % NG
	35406	 13.75	 0.0	 106.8	 -106.8	 1.0	 100.0	 1	 23	 4.5; % NG
	35408	 60.825	 0.0	 53.0	 -53.0	 1.0	 100.0	 1	 105	 16.65; % NG
	35408	 112.325	 0.0	 104.0	 -104.0	 1.0	 100.0	 1	 208	 16.65; % NG
	35408	 84.325	 0.0	 76.0	 -76.0	 1.0	 100.0	 1	 152	 16.65; % NG
	35409	 143.625	 0.0	 140.0	 -140.0	 1.0	 100.0	 1	 280	 7.25; % NG
	35409	 67.625	 0.0	 64.0	 -64.0	 1.0	 100.0	 1	 128	 7.25; % PEL
	35409	 97.125	 0.0	 94.0	 -94.0	 1.0	 100.0	 1	 187	 7.25; % NG
	35409	 65.125	 0.0	 62.0	 -62.0	 1.0	 100.0	 1	 123	 7.25; % PEL
	35410	 47.05	 0.0	 44.0	 -44.0	 1.0	 100.0	 1	 87	 7.1; % PEL
	35410	 125.55	 0.0	 122.0	 -122.0	 1.0	 100.0	 1	 244	 7.1; % PEL
	35410	 119.25	 0.0	 116.0	 -116.0	 1.0	 100.0	 1	 232	 6.5; % NG
	35410	 48.75	 0.0	 46.0	 -46.0	 1.0	 100.0	 1	 91	 6.5; % NG
	35412	 32.425	 0.0	 28.0	 -28.0	 1.0	 100.0	 1	 55	 9.85; % PEL
	35412	 34.925	 0.0	 30.0	 -30.0	 1.0	 100.0	 1	 60	 9.85; % NG
	35412	 43.425	 0.0	 39.0	 -39.0	 1.0	 100.0	 1	 77	 9.85; % PEL
	35413	 9.7	 0.0	 39.6	 -39.6	 1.0	 100.0	 1	 14	 5.4; % PEL
	35415	 22.5	 0.0	 128.4	 -128.4	 1.0	 100.0	 1	 31	 14.0; % NG
	35416	 57.0	 0.0	 81.6	 -81.6	 1.0	 100.0	 1	 114	 0.0; % COW
	35417	 32.25	 0.0	 56.4	 -56.4	 1.0	 100.0	 1	 52	 12.5; % NG
	35417	 70.25	 0.0	 64.0	 -64.0	 1.0	 100.0	 1	 128	 12.5; % NG
	35417	 55.75	 0.0	 56.4	 -56.4	 1.0	 100.0	 1	 99	 12.5; % NG
	35417	 52.25	 0.0	 56.4	 -56.4	 1.0	 100.0	 1	 92	 12.5; % NG
	35418	 48.75	 0.0	 49.0	 -49.0	 1.0	 100.0	 1	 97	 0.5; % NG
	35419	 28.7	 0.0	 102.0	 -102.0	 1.0	 100.0	 1	 51	 6.4; % PEL
	35419	 14.2	 0.0	 102.0	 -102.0	 1.0	 100.0	 1	 22	 6.4; % PEL
	35419	 27.925	 0.0	 102.0	 -102.0	 1.0	 100.0	 1	 49	 6.85; % NG
	35419	 17.925	 0.0	 102.0	 -102.0	 1.0	 100.0	 1	 29	 6.85; % PEL
	35420	 17.0	 0.0	 16.8	 -16.8	 1.0	 100.0	 1	 31	 3.0; % NG
	35420	 21.0	 0.0	 20.0	 -20.0	 1.0	 100.0	 1	 39	 3.0; % COW
	35421	 54.0	 0.0	 54.0	 -54.0	 1.0	 100.0	 1	 107	 1.0; % NG
	35421	 21.5	 0.0	 21.0	 -21.0	 1.0	 100.0	 1	 42	 1.0; % PEL
	35422	 19.6	 0.0	 20.0	 -20.0	 1.0	 100.0	 1	 39	 0.2; % PEL
	35422	 14.6	 0.0	 15.0	 -15.0	 1.0	 100.0	 1	 29	 0.2; % PEL
	35422	 15.6	 0.0	 16.0	 -16.0	 1.0	 100.0	 1	 31	 0.2; % PEL
	35422	 11.6	 0.0	 12.0	 -12.0	 1.0	 100.0	 1	 23	 0.2; % PEL
	35422	 8.6	 0.0	 9.0	 -9.0	 1.0	 100.0	 1	 17	 0.2; % PEL
	35422	 13.1	 0.0	 13.0	 -13.0	 1.0	 100.0	 1	 26	 0.2; % PEL
	35422	 9.6	 0.0	 10.0	 -10.0	 1.0	 100.0	 1	 19	 0.2; % PEL
	35422	 27.1	 0.0	 27.0	 -27.0	 1.0	 100.0	 1	 54	 0.2; % NG
	35422	 31.6	 0.0	 32.0	 -32.0	 1.0	 100.0	 1	 63	 0.2; % PEL
	35422	 23.6	 0.0	 24.0	 -24.0	 1.0	 100.0	 1	 47	 0.2; % PEL
	35422	 17.1	 0.0	 17.0	 -17.0	 1.0	 100.0	 1	 34	 0.2; % PEL
	75435	 746.0	 0.0	 990.0	 -990.0	 1.0	 100.0	 1	 1290	 202.0; % COW
	75435	 716.75	 0.0	 990.0	 -990.0	 1.0	 100.0	 1	 1233	 200.5; % COW
	75439	 330.5	 0.0	 530.4	 -530.4	 1.0	 100.0	 1	 621	 40.0; % NG
	75439	 330.5	 0.0	 530.4	 -530.4	 1.0	 100.0	 1	 621	 40.0; % NG
	75439	 300.0	 0.0	 530.4	 -530.4	 1.0	 100.0	 1	 560	 40.0; % COW
	75439	 330.5	 0.0	 530.4	 -530.4	 1.0	 100.0	 1	 621	 40.0; % NG
	75439	 330.5	 0.0	 530.4	 -530.4	 1.0	 100.0	 1	 621	 40.0; % NG
	75444	 558.5	 0.0	 484.0	 -484.0	 1.0	 100.0	 1	 967	 150.0; % NG
	75446	 463.5	 0.0	 882.0	 -882.0	 1.0	 100.0	 1	 842	 85.0; % NG
	75446	 435.25	 0.0	 882.0	 -882.0	 1.0	 100.0	 1	 783	 87.5; % NG
	75450	 310.0	 0.0	 265.0	 -265.0	 1.0	 100.0	 1	 530	 90.0; % COW
	75450	 342.0	 0.0	 297.0	 -297.0	 1.0	 100.0	 1	 594	 90.0; % COW
	75450	 288.25	 0.0	 252.0	 -252.0	 1.0	 100.0	 1	 504	 72.5; % NG
	75450	 386.5	 0.0	 317.0	 -317.0	 1.0	 100.0	 1	 633	 140.0; % COW
	75453	 194.25	 0.0	 154.0	 -154.0	 1.0	 100.0	 1	 308	 80.5; % NG
	75453	 284.75	 0.0	 259.0	 -259.0	 1.0	 100.0	 1	 517	 52.5; % NG
	75454	 595.5	 0.0	 571.0	 -571.0	 1.0	 100.0	 1	 1141	 50.0; % NG
	75456	 606.5	 0.0	 577.0	 -577.0	 1.0	 100.0	 1	 1153	 60.0; % NG
	75459	 130.75	 0.0	 3466.8	 -3466.8	 1.0	 100.0	 1	 203	 58.5; % NG
	75462	 194.5	 0.0	 165.0	 -165.0	 1.0	 100.0	 1	 329	 60.0; % NG
	75462	 284.75	 0.0	 261.0	 -261.0	 1.0	 100.0	 1	 522	 47.5; % NG
	75463	 374.5	 0.0	 358.0	 -358.0	 1.0	 100.0	 1	 715	 34.0; % NG
	75463	 164.25	 0.0	 148.0	 -148.0	 1.0	 100.0	 1	 296	 32.5; % COW
	75463	 212.0	 0.0	 200.0	 -200.0	 1.0	 100.0	 1	 399	 25.0; % NG
	75464	 174.25	 0.0	 162.0	 -162.0	 1.0	 100.0	 1	 323	 25.5; % NG
	75464	 175.5625	 0.0	 159.0	 -159.0	 1.0	 100.0	 1	 317	 34.125; % NG
	75464	 197.75	 0.0	 185.0	 -185.0	 1.0	 100.0	 1	 370	 25.5; % NG
	75464	 153.25	 0.0	 141.0	 -141.0	 1.0	 100.0	 1	 281	 25.5; % NG
	75464	 173.75	 0.0	 161.0	 -161.0	 1.0	 100.0	 1	 322	 25.5; % NG
	75464	 180.75	 0.0	 168.0	 -168.0	 1.0	 100.0	 1	 336	 25.5; % NG
	75464	 264.75	 0.0	 252.0	 -252.0	 1.0	 100.0	 1	 504	 25.5; % NG
	75464	 192.75	 0.0	 180.0	 -180.0	 1.0	 100.0	 1	 360	 25.5; % NG
	75464	 162.75	 0.0	 150.0	 -150.0	 1.0	 100.0	 1	 300	 25.5; % NG
	75464	 195.75	 0.0	 183.0	 -183.0	 1.0	 100.0	 1	 366	 25.5; % NG
	75465	 53.25	 0.0	 244.8	 -244.8	 1.0	 100.0	 1	 74	 32.5; % COW
	75465	 110.25	 0.0	 244.8	 -244.8	 1.0	 100.0	 1	 188	 32.5; % NG
	75468	 225.0	 0.0	 209.0	 -209.0	 1.0	 100.0	 1	 418	 32.0; % COW
	75468	 232.25	 15.35	 224.7	 -194.0	 1.0	 100.0	 1	 387	 77.5; % COW
	75468	 113.5	 0.0	 105.0	 -105.0	 1.0	 100.0	 1	 209	 18.0; % NG
	75468	 150.5	 0.0	 138.0	 -138.0	 1.0	 100.0	 1	 276	 25.0; % NG
	75468	 148.0	 0.0	 136.0	 -136.0	 1.0	 100.0	 1	 271	 25.0; % COW
	75468	 335.0	 0.0	 323.0	 -323.0	 1.0	 100.0	 1	 645	 25.0; % NG
	75468	 131.0	 0.0	 119.0	 -119.0	 1.0	 100.0	 1	 237	 25.0; % NG
	75468	 135.5	 0.0	 123.0	 -123.0	 1.0	 100.0	 1	 246	 25.0; % NG
	75468	 256.75	 0.0	 231.0	 -231.0	 1.0	 100.0	 1	 461	 52.5; % NG
	75468	 152.5	 0.0	 130.0	 -130.0	 1.0	 100.0	 1	 260	 45.0; % NG
	75471	 349.0	 0.0	 342.0	 -342.0	 1.0	 100.0	 1	 683	 15.0; % COW
	75471	 229.0	 0.0	 204.0	 -204.0	 1.0	 100.0	 1	 408	 50.0; % NG
	75474	 126.25	 0.0	 113.0	 -113.0	 1.0	 100.0	 1	 225	 27.5; % NG
	75474	 144.75	 0.0	 131.0	 -131.0	 1.0	 100.0	 1	 262	 27.5; % PEL
	75474	 244.25	 0.0	 231.0	 -231.0	 1.0	 100.0	 1	 461	 27.5; % NG
	75474	 137.75	 0.0	 124.0	 -124.0	 1.0	 100.0	 1	 248	 27.5; % NG
	75474	 116.5	 0.0	 109.0	 -109.0	 1.0	 100.0	 1	 218	 15.0; % NG
	75474	 117.5	 0.0	 118.0	 -118.0	 1.0	 100.0	 1	 235	 0.0; % NG
	75474	 216.25	 0.0	 216.0	 -216.0	 1.0	 100.0	 1	 431	 1.5; % NG
	75474	 139.75	 0.0	 139.0	 -139.0	 1.0	 100.0	 1	 278	 1.5; % NG
	75474	 331.75	 0.0	 331.0	 -331.0	 1.0	 100.0	 1	 662	 1.5; % COW
	75476	 83.25	 0.0	 80.0	 -80.0	 1.0	 100.0	 1	 159	 7.5; % PEL
	75477	 150.25	 0.0	 139.0	 -139.0	 1.0	 100.0	 1	 278	 22.5; % NG
	75477	 254.75	 0.0	 244.0	 -244.0	 1.0	 100.0	 1	 487	 22.5; % NG
	75477	 144.25	 0.0	 133.0	 -133.0	 1.0	 100.0	 1	 266	 22.5; % COW
	75477	 140.75	 0.0	 130.0	 -130.0	 1.0	 100.0	 1	 259	 22.5; % NG
	75477	 169.75	 0.0	 159.0	 -159.0	 1.0	 100.0	 1	 317	 22.5; % NG
	75477	 138.75	 0.0	 128.0	 -128.0	 1.0	 100.0	 1	 255	 22.5; % NG
	75477	 146.25	 0.0	 135.0	 -135.0	 1.0	 100.0	 1	 270	 22.5; % NG
	75477	 156.25	 0.0	 145.0	 -145.0	 1.0	 100.0	 1	 290	 22.5; % PEL
	75479	 519.25	 0.0	 516.0	 -516.0	 1.0	 100.0	 1	 1031	 7.5; % COW
	75479	 154.25	 0.0	 151.0	 -151.0	 1.0	 100.0	 1	 301	 7.5; % NG
	75484	 129.625	 0.0	 122.0	 -122.0	 1.0	 100.0	 1	 243	 16.25; % NG
	75484	 82.625	 0.0	 75.0	 -75.0	 1.0	 100.0	 1	 149	 16.25; % PEL
	75484	 47.125	 0.0	 39.0	 -39.0	 1.0	 100.0	 1	 78	 16.25; % PEL
...
];

%% generator cost data
%	2	startup	shutdown	n	c(n-1)	...	c0
mpc.gencost = [
	2	 0.0	 0.0	 3	   0.001771	  17.710000	  -1.413000; % COW
	2	 0.0	 0.0	 3	   0.001198	  16.040000	  -1.794000; % COW
	2	 0.0	 0.0	 3	   0.000000	  77.440000	 -113.700000; % NG
	2	 0.0	 0.0	 3	   0.001897	  19.330000	   0.000000; % NG
	2	 0.0	 0.0	 3	   0.001891	  18.070000	   0.000000; % COW
	2	 0.0	 0.0	 3	   0.001893	  18.070000	   0.000000; % COW
	2	 0.0	 0.0	 3	   0.001904	  18.070000	   0.000000; % COW
	2	 0.0	 0.0	 3	   0.001891	  18.070000	   0.000000; % COW
	2	 0.0	 0.0	 3	   0.001698	  16.020000	   0.000000; % COW
	2	 0.0	 0.0	 3	   0.004984	  13.790000	   0.000000; % NG
	2	 0.0	 0.0	 3	   0.000000	  18.580000	 -140.300000; % NG
	2	 0.0	 0.0	 3	   0.000000	  19.860000	 -235.800000; % COW
	2	 0.0	 0.0	 3	   0.000000	  25.200000	 -25.830000; % NG
	2	 0.0	 0.0	 3	   0.079740	  29.580000	  -5.292000; % NG
	2	 0.0	 0.0	 3	   0.000000	  16.430000	   0.000000; % NG
	2	 0.0	 0.0	 3	   0.000000	  16.430000	   0.000000; % NG
	2	 0.0	 0.0	 3	   0.000000	  16.430000	   0.000000; % NG
	2	 0.0	 0.0	 3	   0.000000	  16.430000	   0.000000; % NG
	2	 0.0	 0.0	 3	   0.000000	  16.430000	   0.000000; % PEL
	2	 0.0	 0.0	 3	   0.000000	  16.430000	   0.000000; % NG
	2	 0.0	 0.0	 3	   0.000000	  16.430000	   0.000000; % NG
	2	 0.0	 0.0	 3	   0.000000	  16.430000	   0.000000; % PEL
	2	 0.0	 0.0	 3	   0.000000	  18.390000	 -65.210000; % NG
	2	 0.0	 0.0	 3	   0.000000	  23.630000	 -74.490000; % NG
	2	 0.0	 0.0	 3	   0.000000	  19.270000	 -52.910000; % PEL
	2	 0.0	 0.0	 3	   0.000000	  12.410000	 -22.380000; % PEL
	2	 0.0	 0.0	 3	   0.000000	   0.050000	  -2.245000; % NG
	2	 0.0	 0.0	 3	   0.000000	   0.050000	  -2.245000; % NG
	2	 0.0	 0.0	 3	   0.000000	   0.050000	  -2.245000; % NG
	2	 0.0	 0.0	 3	   0.000000	   0.050000	  -2.245000; % NG
	2	 0.0	 0.0	 3	   0.000000	   0.050000	  -2.245000; % NG
	2	 0.0	 0.0	 3	   0.000000	   0.050000	  -2.245000; % PEL
	2	 0.0	 0.0	 3	   0.000000	  16.260000	  -5.080000; % NG
	2	 0.0	 0.0	 3	   0.000000	  16.260000	  -5.080000; % NG
	2	 0.0	 0.0	 3	   0.000000	  16.270000	  -5.450000; % NG
	2	 0.0	 0.0	 3	   0.000000	  16.270000	  -5.450000; % NG
	2	 0.0	 0.0	 3	   0.000000	  16.270000	  -5.450000; % NG
	2	 0.0	 0.0	 3	   0.000000	  18.160000	 -20.840000; % NG
	2	 0.0	 0.0	 3	   0.000000	  83.160000	 -84.530000; % NG
	2	 0.0	 0.0	 3	   0.000000	   8.033000	 -167.000000; % COW
	2	 0.0	 0.0	 3	   0.000000	  18.770000	  -5.544000; % NG
	2	 0.0	 0.0	 3	   0.000000	  18.450000	  -5.544000; % PEL
	2	 0.0	 0.0	 3	   0.000000	  20.120000	  -5.544000; % NG
	2	 0.0	 0.0	 3	   0.000000	  21.350000	  -5.544000; % PEL
	2	 0.0	 0.0	 3	   0.000000	  20.210000	  -5.544000; % NG
	2	 0.0	 0.0	 3	   0.000000	  19.560000	  -5.544000; % NG
	2	 0.0	 0.0	 3	   0.000000	  22.480000	 -268.300000; % NG
	2	 0.0	 0.0	 3	   0.000000	  22.480000	 -268.300000; % NG
	2	 0.0	 0.0	 3	   0.000000	  25.920000	 -39.060000; % COW
	2	 0.0	 0.0	 3	   0.000000	  81.460000	 -82.010000; % NG
	2	 0.0	 0.0	 3	   0.000000	  73.550000	 -85.710000; % COW
	2	 0.0	 0.0	 3	   0.000000	  71.640000	 -85.710000; % NG
	2	 0.0	 0.0	 3	   0.000000	  22.520000	 -39.060000; % NG
	2	 0.0	 0.0	 3	   0.000000	  20.110000	 -40.050000; % NG
	2	 0.0	 0.0	 3	   0.000000	  20.800000	 -40.050000; % NG
	2	 0.0	 0.0	 3	   0.000000	  20.570000	 -40.050000; % NG
	2	 0.0	 0.0	 3	   0.000000	  20.740000	 -40.050000; % NG
	2	 0.0	 0.0	 3	   0.026400	  14.010000	  -4.127000; % NG
	2	 0.0	 0.0	 3	   0.000000	  20.170000	 -39.060000; % NG
	2	 0.0	 0.0	 3	   0.000000	  28.560000	 -75.870000; % COW
	2	 0.0	 0.0	 3	   0.000000	  29.080000	 -75.870000; % NG
	2	 0.0	 0.0	 3	   0.000000	  29.480000	 -65.300000; % NG
	2	 0.0	 0.0	 3	   0.000000	  29.480000	 -65.300000; % NG
	2	 0.0	 0.0	 3	   0.000000	  36.580000	  -6.800000; % PEL
	2	 0.0	 0.0	 3	   0.000000	  36.580000	  -6.800000; % NG
	2	 0.0	 0.0	 3	   0.000000	  36.580000	  -6.800000; % NG
	2	 0.0	 0.0	 3	   0.000000	  43.930000	 -23.140000; % NG
	2	 0.0	 0.0	 3	   0.000000	  11.580000	 -10.160000; % NG
	2	 0.0	 0.0	 3	   0.000000	  11.580000	 -10.160000; % PEL
	2	 0.0	 0.0	 3	   0.000000	  11.580000	 -10.160000; % NG
	2	 0.0	 0.0	 3	   0.000000	  12.460000	   0.000000; % PEL
	2	 0.0	 0.0	 3	   0.000000	  12.460000	   0.000000; % NG
	2	 0.0	 0.0	 3	   0.000000	  12.460000	   0.000000; % PEL
	2	 0.0	 0.0	 3	   0.000000	  13.490000	  -5.483000; % NG
	2	 0.0	 0.0	 3	   0.000000	   0.050000	  -2.245000; % NG
	2	 0.0	 0.0	 3	   0.000000	   0.050000	  -2.245000; % NG
	2	 0.0	 0.0	 3	   0.000000	   0.050000	  -2.245000; % NG
	2	 0.0	 0.0	 3	   0.000000	  15.360000	  -3.984000; % COW
	2	 0.0	 0.0	 3	   0.000000	  15.420000	  -5.656000; % NG
	2	 0.0	 0.0	 3	   0.000000	  11.620000	  -3.499000; % NG
	2	 0.0	 0.0	 3	   0.000000	  11.620000	  -3.499000; % NG
	2	 0.0	 0.0	 3	   0.000000	  11.620000	  -3.499000; % NG
	2	 0.0	 0.0	 3	   0.000000	  11.620000	  -3.499000; % COW
	2	 0.0	 0.0	 3	   0.000000	   0.050000	   0.000000; % NG
	2	 0.0	 0.0	 3	   0.000000	   0.050000	   0.000000; % COW
	2	 0.0	 0.0	 3	   0.000000	   0.050000	   0.000000; % COW
	2	 0.0	 0.0	 3	   0.000000	  13.230000	   0.000000; % NG
	2	 0.0	 0.0	 3	   0.000000	  13.230000	   0.000000; % NG
	2	 0.0	 0.0	 3	   0.000000	   0.050000	  -1.660000; % NG
	2	 0.0	 0.0	 3	   0.000000	   0.050000	  -1.660000; % NG
	2	 0.0	 0.0	 3	   0.000000	   0.050000	  -1.660000; % NG
	2	 0.0	 0.0	 3	   0.000000	  13.650000	  -2.974000; % NG
	2	 0.0	 0.0	 3	   0.000000	  13.660000	  -3.102000; % PEL
	2	 0.0	 0.0	 3	   0.000000	  13.670000	  -3.258000; % NG
	2	 0.0	 0.0	 3	   0.000000	  13.670000	  -3.258000; % PEL
	2	 0.0	 0.0	 3	   0.000000	  16.440000	  -2.824000; % PEL
	2	 0.0	 0.0	 3	   0.000000	  16.470000	  -3.470000; % PEL
	2	 0.0	 0.0	 3	   0.000000	  16.490000	  -3.968000; % NG
	2	 0.0	 0.0	 3	   0.000000	  16.490000	  -3.968000; % NG
	2	 0.0	 0.0	 3	   0.000000	  11.540000	  -3.248000; % PEL
	2	 0.0	 0.0	 3	   0.000000	  11.590000	  -4.495000; % NG
	2	 0.0	 0.0	 3	   0.000000	  11.590000	  -4.543000; % PEL
	2	 0.0	 0.0	 3	   0.000000	  10.970000	  -2.115000; % PEL
	2	 0.0	 0.0	 3	   0.000000	   0.050000	  -1.395000; % NG
	2	 0.0	 0.0	 3	   0.000000	   0.003105	   0.000000; % COW
	2	 0.0	 0.0	 3	   0.000000	   0.050000	  -1.245000; % NG
	2	 0.0	 0.0	 3	   0.000000	   0.050000	  -1.245000; % NG
	2	 0.0	 0.0	 3	   0.000000	   0.050000	  -1.245000; % NG
	2	 0.0	 0.0	 3	   0.000000	   0.002564	   0.000000; % NG
	2	 0.0	 0.0	 3	   0.000000	  19.250000	  -9.504000; % NG
	2	 0.0	 0.0	 3	   0.000000	  14.470000	  -1.858000; % PEL
	2	 0.0	 0.0	 3	   0.000000	  14.470000	  -1.858000; % PEL
	2	 0.0	 0.0	 3	   0.000000	  14.490000	  -2.282000; % NG
	2	 0.0	 0.0	 3	   0.000000	  14.490000	  -2.339000; % PEL
	2	 0.0	 0.0	 3	   0.000000	  16.000000	   0.000000; % NG
	2	 0.0	 0.0	 3	   0.000000	  16.000000	   0.000000; % COW
	2	 0.0	 0.0	 3	   0.000000	  39.750000	 -40.340000; % NG
	2	 0.0	 0.0	 3	   0.000000	  43.470000	 -21.430000; % PEL
	2	 0.0	 0.0	 3	   0.000000	   0.005556	   0.000000; % PEL
	2	 0.0	 0.0	 3	   0.000000	   0.005556	   0.000000; % PEL
	2	 0.0	 0.0	 3	   0.000000	   0.005556	   0.000000; % PEL
	2	 0.0	 0.0	 3	   0.000000	   0.005556	   0.000000; % PEL
	2	 0.0	 0.0	 3	   0.000000	   0.005556	   0.000000; % PEL
	2	 0.0	 0.0	 3	   0.000000	   0.005556	   0.000000; % PEL
	2	 0.0	 0.0	 3	   0.000000	   0.005556	   0.000000; % PEL
	2	 0.0	 0.0	 3	   0.000000	   0.005556	   0.000000; % NG
	2	 0.0	 0.0	 3	   0.000000	   0.005556	   0.000000; % PEL
	2	 0.0	 0.0	 3	   0.000000	   0.005556	   0.000000; % PEL
	2	 0.0	 0.0	 3	   0.000000	   0.005556	   0.000000; % PEL
	2	 0.0	 0.0	 3	   0.000000	  21.790000	 -559.200000; % COW
	2	 0.0	 0.0	 3	   0.000000	  21.790000	 -556.300000; % COW
	2	 0.0	 0.0	 3	   0.000000	  82.530000	 -113.000000; % NG
	2	 0.0	 0.0	 3	   0.000000	  78.590000	 -97.990000; % NG
	2	 0.0	 0.0	 3	   0.000000	  88.640000	 -97.990000; % COW
	2	 0.0	 0.0	 3	   0.000000	  81.990000	 -97.990000; % NG
	2	 0.0	 0.0	 3	   0.000000	  86.010000	 -97.990000; % NG
	2	 0.0	 0.0	 3	   0.000000	  16.050000	 -397.600000; % NG
	2	 0.0	 0.0	 3	   0.002735	  17.410000	   0.000000; % NG
	2	 0.0	 0.0	 3	   0.001989	  16.970000	   0.000000; % NG
	2	 0.0	 0.0	 3	   0.000000	  19.050000	 -285.900000; % COW
	2	 0.0	 0.0	 3	   0.000000	  19.050000	 -285.900000; % COW
	2	 0.0	 0.0	 3	   0.003851	  17.900000	   0.000000; % NG
	2	 0.0	 0.0	 3	   0.000000	  18.360000	 -334.000000; % COW
	2	 0.0	 0.0	 3	   0.000000	  18.600000	 -253.600000; % NG
	2	 0.0	 0.0	 3	   0.000000	  18.380000	 -194.700000; % NG
	2	 0.0	 0.0	 3	   0.000000	  18.080000	 -184.100000; % NG
	2	 0.0	 0.0	 3	   0.000000	  79.090000	 -154.100000; % NG
	2	 0.0	 0.0	 3	   0.000000	  72.560000	 -132.600000; % NG
	2	 0.0	 0.0	 3	   0.000000	  22.610000	 -180.000000; % NG
	2	 0.0	 0.0	 3	   0.000000	  17.060000	 -154.800000; % NG
	2	 0.0	 0.0	 3	   0.000000	  19.430000	 -121.700000; % NG
	2	 0.0	 0.0	 3	   0.000000	  22.410000	 -123.900000; % COW
	2	 0.0	 0.0	 3	   0.000000	  22.320000	 -109.100000; % NG
	2	 0.0	 0.0	 3	   0.000000	  22.190000	 -102.000000; % NG
	2	 0.0	 0.0	 3	   0.000000	  22.300000	 -119.400000; % NG
	2	 0.0	 0.0	 3	   0.000000	  22.190000	 -102.000000; % NG
	2	 0.0	 0.0	 3	   0.000000	  22.190000	 -102.000000; % NG
	2	 0.0	 0.0	 3	   0.000000	  22.190000	 -102.000000; % NG
	2	 0.0	 0.0	 3	   0.000000	  22.190000	 -102.000000; % NG
	2	 0.0	 0.0	 3	   0.000000	  22.190000	 -102.000000; % NG
	2	 0.0	 0.0	 3	   0.000000	  22.190000	 -102.000000; % NG
	2	 0.0	 0.0	 3	   0.000000	  22.190000	 -102.000000; % NG
	2	 0.0	 0.0	 3	   0.000000	  22.190000	 -102.000000; % NG
	2	 0.0	 0.0	 3	   0.000000	  19.820000	 -114.500000; % COW
	2	 0.0	 0.0	 3	   0.000000	  20.910000	 -126.800000; % NG
	2	 0.0	 0.0	 3	   0.000000	  21.990000	 -114.500000; % COW
	2	 0.0	 0.0	 3	   0.002667	  20.080000	   0.000000; % COW
	2	 0.0	 0.0	 3	   0.000000	  21.700000	 -73.620000; % NG
	2	 0.0	 0.0	 3	   0.000000	  20.790000	 -56.520000; % NG
	2	 0.0	 0.0	 3	   0.000000	  22.930000	 -58.470000; % COW
	2	 0.0	 0.0	 3	   0.000000	  23.450000	 -58.470000; % NG
	2	 0.0	 0.0	 3	   0.000000	  22.720000	 -58.470000; % NG
	2	 0.0	 0.0	 3	   0.000000	  23.480000	 -58.470000; % NG
	2	 0.0	 0.0	 3	   0.000000	  78.180000	 -133.100000; % NG
	2	 0.0	 0.0	 3	   0.000000	  73.890000	 -106.000000; % NG
	2	 0.0	 0.0	 3	   0.000000	  20.780000	 -67.080000; % COW
	2	 0.0	 0.0	 3	   0.000000	  16.890000	 -172.200000; % NG
	2	 0.0	 0.0	 3	   0.000000	  23.940000	 -44.090000; % NG
	2	 0.0	 0.0	 3	   0.000000	  23.300000	 -44.090000; % PEL
	2	 0.0	 0.0	 3	   0.000000	  23.720000	 -50.170000; % NG
	2	 0.0	 0.0	 3	   0.000000	  22.910000	 -50.170000; % NG
	2	 0.0	 0.0	 3	   0.000000	  22.720000	 -30.680000; % NG
	2	 0.0	 0.0	 3	   0.000000	  21.290000	   0.000000; % NG
	2	 0.0	 0.0	 3	   0.000000	  76.020000	 -25.330000; % NG
	2	 0.0	 0.0	 3	   0.000000	  78.200000	 -25.330000; % NG
	2	 0.0	 0.0	 3	   0.004759	  74.370000	   0.000000; % COW
	2	 0.0	 0.0	 3	   0.035930	  35.940000	  -1.194000; % PEL
	2	 0.0	 0.0	 3	   0.000000	  24.160000	 -32.390000; % NG
	2	 0.0	 0.0	 3	   0.000000	  26.080000	 -32.390000; % NG
	2	 0.0	 0.0	 3	   0.000000	  24.260000	 -32.390000; % COW
	2	 0.0	 0.0	 3	   0.000000	  27.960000	 -32.390000; % NG
	2	 0.0	 0.0	 3	   0.000000	  28.080000	 -32.390000; % NG
	2	 0.0	 0.0	 3	   0.000000	  25.040000	 -32.390000; % NG
	2	 0.0	 0.0	 3	   0.000000	  26.190000	 -32.390000; % NG
	2	 0.0	 0.0	 3	   0.000000	  25.420000	 -32.390000; % PEL
	2	 0.0	 0.0	 3	   0.000000	  19.390000	 -37.780000; % COW
	2	 0.0	 0.0	 3	   0.000000	  19.640000	 -37.780000; % NG
	2	 0.0	 0.0	 3	   0.000000	   0.050000	  -1.620000; % NG
	2	 0.0	 0.0	 3	   0.000000	   0.050000	  -1.620000; % PEL
	2	 0.0	 0.0	 3	   0.000000	   0.050000	  -1.620000; % PEL
...
];

%% branch data
%	fbus	tbus	r	x	b	rateA	rateB	rateC	ratio	angle	status	angmin	angmax
mpc.branch = [
	35308	 36653	 0.000996849	 0.00712763	 0.260677	 795.0	 795.0	 795.0	 0.0	 0.0	 1	 -30.0	 30.0;
	35308	 75572	 0.000858146	 0.00613538	 0.224361	 795.0	 795.0	 795.0	 0.0	 0.0	 1	 -30.0	 30.0;
	35308	 75628	 0.00141505	 0.0101211	 0.370328	 795.0	 795.0	 795.0	 0.0	 0.0	 1	 -30.0	 30.0;
	35309	 37399	 0.000342626	 0.00634921	 0.419454	 1216.0	 1216.0	 1216.0	 0.0	 0.0	 1	 -30.0	 30.0;
	35309	 37480	 0.00120626	 0.021683	 1.55189	 1216.0	 1216.0	 1216.0	 0.0	 0.0	 1	 -30.0	 30.0;
	35309	 37678	 0.000627527	 0.0112331	 0.799013	 1801.0	 1801.0	 1801.0	 0.0	 0.0	 1	 -30.0	 30.0;
	35309	 75435	 1e-07	 0.0001	 0.0	 1450.0	 1812.5	 2175.0	 0.0	 0.0	 1	 -30.0	 30.0;
	35309	 75435	 1e-07	 0.0001	 0.0	 1450.0	 1812.5	 2175.0	 0.0	 0.0	 1	 -30.0	 30.0;
	35309	 75435	 1e-07	 0.0001	 0.0	 1450.0	 1812.5	 2175.0	 0.0	 0.0	 1	 -30.0	 30.0;
	35310	 37534	 0.000142702	 0.00264344	 0.174541	 2639.0	 2639.0	 2639.0	 0.0	 0.0	 1	 -30.0	 30.0;
	35310	 75439	 1e-07	 0.0001	 0.0	 1350.0	 1687.5	 2025.0	 0.0	 0.0	 1	 -30.0	 30.0;
	35310	 75439	 1e-07	 0.0001	 0.0	 1350.0	 1687.5	 2025.0	 0.0	 0.0	 1	 -30.0	 30.0;
	35311	 36648	 0.000504187	 0.00902042	 0.641111	 1801.0	 1801.0	 1801.0	 0.0	 0.0	 1	 -30.0	 30.0;
	35311	 36774	 0.000128692	 0.00230036	 0.163273	 1925.0	 1925.0	 1925.0	 0.0	 0.0	 1	 -30.0	 30.0;
	35311	 36974	 0.000139305	 0.00258051	 0.170384	 1273.0	 1273.0	 1273.0	 0.0	 0.0	 1	 -30.0	 30.0;
	35312	 37031	 0.00126359	 0.0227264	 1.62794	 1216.0	 1216.0	 1216.0	 0.0	 0.0	 1	 -30.0	 30.0;
	35312	 37069	 0.000789981	 0.0146676	 0.971817	 1216.0	 1216.0	 1216.0	 0.0	 0.0	 1	 -30.0	 30.0;
	35312	 37680	 0.000874784	 0.0156817	 1.11783	 1216.0	 1216.0	 1216.0	 0.0	 0.0	 1	 -30.0	 30.0;
	35313	 37017	 0.000697634	 0.00498739	 0.18236	 795.0	 795.0	 795.0	 0.0	 0.0	 1	 -30.0	 30.0;
	35313	 37254	 3.55042e-05	 0.000322542	 0.0121614	 907.0	 907.0	 907.0	 0.0	 0.0	 1	 -30.0	 30.0;
	35313	 37276	 0.000654348	 0.00467785	 0.171037	 795.0	 795.0	 795.0	 0.0	 0.0	 1	 -30.0	 30.0;
	35313	 37281	 0.000489084	 0.0056055	 0.219983	 1067.0	 1067.0	 1067.0	 0.0	 0.0	 1	 -30.0	 30.0;
	35314	 36648	 0.000887923	 0.0159187	 1.13488	 1216.0	 1216.0	 1216.0	 0.0	 0.0	 1	 -30.0	 30.0;
	35314	 37471	 6.94343e-05	 0.00124107	 0.0880822	 1216.0	 1216.0	 1216.0	 0.0	 0.0	 1	 -30.0	 30.0;
	35314	 37617	 0.000997355	 0.0178951	 1.27731	 1216.0	 1216.0	 1216.0	 0.0	 0.0	 1	 -30.0	 30.0;
	35314	 75449	 1e-07	 0.0001	 0.0	 800.0	 1000.0	 1200.0	 0.0	 0.0	 1	 -30.0	 30.0;
	35314	 75449	 1e-07	 0.0001	 0.0	 800.0	 1000.0	 1200.0	 0.0	 0.0	 1	 -30.0	 30.0;
	35315	 36833	 0.00146191	 0.0104567	 0.382633	 795.0	 795.0	 795.0	 0.0	 0.0	 1	 -30.0	 30.0;
	35316	 36685	 0.000211073	 0.00377329	 0.267861	 1216.0	 1216.0	 1216.0	 0.0	 0.0	 1	 -30.0	 30.0;
	35316	 37467	 0.000472255	 0.00875489	 0.578731	 1216.0	 1216.0	 1216.0	 0.0	 0.0	 1	 -30.0	 30.0;
	35316	 75454	 1e-07	 0.0001	 0.0	 1250.0	 1562.5	 1875.0	 0.0	 0.0	 1	 -30.0	 30.0;
	35317	 36685	 0.000183845	 0.00328642	 0.233284	 1216.0	 1216.0	 1216.0	 0.0	 0.0	 1	 -30.0	 30.0;
	35317	 37467	 0.000498211	 0.00891331	 0.633477	 1216.0	 1216.0	 1216.0	 0.0	 0.0	 1	 -30.0	 30.0;
	35317	 75456	 1e-07	 0.0001	 0.0	 1250.0	 1562.5	 1875.0	 0.0	 0.0	 1	 -30.0	 30.0;
	35318	 37181	 0.000161145	 0.00288054	 0.204464	 1925.0	 1925.0	 1925.0	 0.0	 0.0	 1	 -30.0	 30.0;
	35318	 37534	 0.000113461	 0.00202806	 0.143944	 2639.0	 2639.0	 2639.0	 0.0	 0.0	 1	 -30.0	 30.0;
	35318	 75458	 1e-07	 0.0001	 0.0	 1250.0	 1562.5	 1875.0	 0.0	 0.0	 1	 -30.0	 30.0;
	35318	 75458	 1e-07	 0.0001	 0.0	 1250.0	 1562.5	 1875.0	 0.0	 0.0	 1	 -30.0	 30.0;
	35319	 37069	 0.000283058	 0.00506083	 0.359334	 1216.0	 1216.0	 1216.0	 0.0	 0.0	 1	 -30.0	 30.0;
	35320	 37480	 0.000476263	 0.00851995	 0.605446	 1216.0	 1216.0	 1216.0	 0.0	 0.0	 1	 -30.0	 30.0;
	35321	 37409	 0.000200416	 0.00358272	 0.254326	 1801.0	 1801.0	 1801.0	 0.0	 0.0	 1	 -30.0	 30.0;
	35321	 37422	 6.61987e-05	 0.0012262	 0.080956	 1632.0	 1632.0	 1632.0	 0.0	 0.0	 1	 -30.0	 30.0;
	35322	 37275	 6.66756e-05	 0.00123504	 0.0815394	 1756.0	 1756.0	 1756.0	 0.0	 0.0	 1	 -30.0	 30.0;
	35322	 75465	 1e-07	 0.0001	 0.0	 900.0	 1125.0	 1350.0	 0.0	 0.0	 1	 -30.0	 30.0;
	35323	 36835	 0.000167828	 0.00119963	 0.0438542	 795.0	 795.0	 795.0	 0.0	 0.0	 1	 -30.0	 30.0;
	35323	 37531	 0.00216657	 0.0155097	 0.568207	 795.0	 795.0	 795.0	 0.0	 0.0	 1	 -30.0	 30.0;
	35323	 76012	 0.00282878	 0.0207985	 0.724361	 795.0	 795.0	 795.0	 0.0	 0.0	 1	 -30.0	 30.0;
	35324	 36691	 0.000215821	 0.00385821	 0.273892	 1216.0	 1216.0	 1216.0	 0.0	 0.0	 1	 -30.0	 30.0;
	35324	 36976	 9.87221e-05	 0.0017646	 0.125242	 1216.0	 1216.0	 1216.0	 0.0	 0.0	 1	 -30.0	 30.0;
	35324	 37282	 0.000199857	 0.00357273	 0.253617	 1216.0	 1216.0	 1216.0	 0.0	 0.0	 1	 -30.0	 30.0;
	35325	 37594	 6.51401e-05	 0.00116431	 0.0826343	 1216.0	 1216.0	 1216.0	 0.0	 0.0	 1	 -30.0	 30.0;
	35325	 39084	 0.00132786	 0.0228344	 1.79552	 1216.0	 1216.0	 1216.0	 0.0	 0.0	 1	 -30.0	 30.0;
	35325	 75470	 1e-07	 0.0001	 0.0	 800.0	 1000.0	 1200.0	 0.0	 0.0	 1	 -30.0	 30.0;
	35325	 75470	 1e-07	 0.0001	 0.0	 800.0	 1000.0	 1200.0	 0.0	 0.0	 1	 -30.0	 30.0;
	35326	 37078	 0.02387	 0.0955749	 0.0323083	 175.0	 175.0	 175.0	 0.0	 0.0	 1	 -30.0	 30.0;
	35327	 36811	 0.000520536	 0.00505227	 0.192624	 947.0	 947.0	 947.0	 0.0	 0.0	 1	 -30.0	 30.0;
	35327	 76057	 0.00606811	 0.0439154	 1.63431	 795.0	 795.0	 795.0	 0.0	 0.0	 1	 -30.0	 30.0;
	35328	 36705	 0.0353648	 0.0865974	 0.0237009	 118.0	 118.0	 118.0	 0.0	 0.0	 1	 -30.0	 30.0;
	35328	 37013	 0.0059117	 0.0227276	 0.00431599	 142.0	 142.0	 142.0	 0.0	 0.0	 1	 -30.0	 30.0;
	35329	 37409	 0.000229782	 0.00410787	 0.291626	 1216.0	 1216.0	 1216.0	 0.0	 0.0	 1	 -30.0	 30.0;
	35329	 37460	 1.29368e-05	 0.000231228	 0.0164105	 2213.0	 2213.0	 2213.0	 0.0	 0.0	 1	 -30.0	 30.0;
	35329	 37461	 0.000102296	 0.00182849	 0.129777	 1216.0	 1216.0	 1216.0	 0.0	 0.0	 1	 -30.0	 30.0;
	35330	 37091	 0.00143939	 0.00484963	 0.00120524	 142.0	 142.0	 142.0	 0.0	 0.0	 1	 -30.0	 30.0;
	35330	 37092	 0.00393534	 0.0107142	 0.00236045	 118.0	 118.0	 118.0	 0.0	 0.0	 1	 -30.0	 30.0;
	35331	 37508	 0.00278279	 0.0129032	 0.00428842	 191.0	 191.0	 191.0	 0.0	 0.0	 1	 -30.0	 30.0;
	35331	 37510	 0.0186721	 0.0760002	 0.0185224	 159.0	 159.0	 159.0	 0.0	 0.0	 1	 -30.0	 30.0;
	35331	 37533	 0.0144201	 0.0362505	 0.00939188	 118.0	 118.0	 118.0	 0.0	 0.0	 1	 -30.0	 30.0;
	35332	 36616	 0.00529408	 0.0184504	 0.00427816	 142.0	 142.0	 142.0	 0.0	 0.0	 1	 -30.0	 30.0;
	35332	 36617	 0.0100975	 0.0253831	 0.00657606	 118.0	 118.0	 118.0	 0.0	 0.0	 1	 -30.0	 30.0;
	35332	 36969	 0.014859	 0.0344939	 0.0105094	 118.0	 118.0	 118.0	 0.0	 0.0	 1	 -30.0	 30.0;
	35332	 37710	 0.00959988	 0.024678	 0.00611094	 118.0	 118.0	 118.0	 0.0	 0.0	 1	 -30.0	 30.0;
	35333	 37365	 0.000209093	 0.00373789	 0.265346	 1216.0	 1216.0	 1216.0	 0.0	 0.0	 1	 -30.0	 30.0;
	35333	 37594	 0.000300653	 0.00537563	 0.381708	 1216.0	 1216.0	 1216.0	 0.0	 0.0	 1	 -30.0	 30.0;
	35334	 37415	 0.000503707	 0.00259229	 0.00495588	 308.0	 308.0	 308.0	 0.0	 0.0	 1	 -30.0	 30.0;
	35334	 76737	 0.0199497	 0.105807	 0.192573	 308.0	 308.0	 308.0	 0.0	 0.0	 1	 -30.0	 30.0;
	35335	 36823	 0.00882349	 0.0302688	 0.00725168	 142.0	 142.0	 142.0	 0.0	 0.0	 1	 -30.0	 30.0;
	35335	 37610	 0.00822482	 0.0247562	 0.00774518	 142.0	 142.0	 142.0	 0.0	 0.0	 1	 -30.0	 30.0;
	35335	 37611	 0.0106513	 0.0371223	 0.00860817	 142.0	 142.0	 142.0	 0.0	 0.0	 1	 -30.0	 30.0;
	35335	 37612	 0.0344299	 0.0815603	 0.0238689	 118.0	 118.0	 118.0	 0.0	 0.0	 1	 -30.0	 30.0;
	35335	 37692	 0.0400586	 0.0930342	 0.0283592	 118.0	 118.0	 118.0	 0.0	 0.0	 1	 -30.0	 30.0;
	35336	 37404	 0.0173105	 0.0645544	 0.0130476	 142.0	 142.0	 142.0	 0.0	 0.0	 1	 -30.0	 30.0;
	35336	 37654	 0.0538472	 0.158587	 0.0521129	 142.0	 142.0	 142.0	 0.0	 0.0	 1	 -30.0	 30.0;
	35336	 75484	 0.00335697	 0.0154003	 0.00394509	 175.0	 175.0	 175.0	 0.0	 0.0	 1	 -30.0	 30.0;
	35336	 75996	 0.0145679	 0.0396646	 0.00873915	 118.0	 118.0	 118.0	 0.0	 0.0	 1	 -30.0	 30.0;
	35337	 37100	 0.001709	 0.008145	 0.002359	 244.0	 244.0	 268.4	 0.0	 0.0	 1	 -30.0	 30.0;
	35337	 37101	 0.001688	 0.007145	 0.002155	 244.0	 244.0	 244.0	 0.0	 0.0	 1	 -30.0	 30.0;
	35337	 75900	 0.00591	 0.015865	 0.003596	 244.0	 244.0	 244.0	 0.0	 0.0	 1	 -30.0	 30.0;
	35338	 36734	 0.00293584	 0.0207661	 0.176168	 549.0	 549.0	 549.0	 0.0	 0.0	 1	 -30.0	 30.0;
	35338	 75995	 0.00127281	 0.00872567	 0.0787385	 549.0	 549.0	 549.0	 0.0	 0.0	 1	 -30.0	 30.0;
	35339	 36976	 9.04912e-05	 0.0016762	 0.110668	 1216.0	 1216.0	 1216.0	 0.0	 0.0	 1	 -30.0	 30.0;
	35339	 37031	 0.00123256	 0.0221614	 1.58673	 1216.0	 1216.0	 1216.0	 0.0	 0.0	 1	 -30.0	 30.0;
	35339	 37282	 0.000195265	 0.00349062	 0.247785	 1216.0	 1216.0	 1216.0	 0.0	 0.0	 1	 -30.0	 30.0;
	35340	 37434	 0.00118975	 0.00811511	 0.0739817	 549.0	 549.0	 549.0	 0.0	 0.0	 1	 -30.0	 30.0;
	35340	 75649	 0.0014996	 0.0103792	 0.0918717	 549.0	 549.0	 549.0	 0.0	 0.0	 1	 -30.0	 30.0;
	35341	 37069	 0.00115204	 0.0206978	 1.48025	 1216.0	 1216.0	 1216.0	 0.0	 0.0	 1	 -30.0	 30.0;
	35341	 37460	 4.78509e-05	 0.000886339	 0.058517	 1216.0	 1216.0	 1216.0	 0.0	 0.0	 1	 -30.0	 30.0;
	35342	 36917	 0.00327518	 0.0076025	 0.00231611	 118.0	 118.0	 118.0	 0.0	 0.0	 1	 -30.0	 30.0;
	35377	 37461	 0.00107443	 0.0192901	 1.37818	 1216.0	 1216.0	 1216.0	 0.0	 0.0	 1	 -30.0	 30.0;
	35377	 38603	 0.000855925	 0.0153417	 1.09339	 4345.0	 4345.0	 4345.0	 0.0	 0.0	 1	 -30.0	 30.0;
	35377	 38972	 0.000358611	 0.00641285	 0.455456	 1216.0	 1216.0	 1216.0	 0.0	 0.0	 1	 -30.0	 30.0;
	35377	 75490	 1e-07	 0.0001	 0.0	 2200.0	 2375.0	 2650.0	 0.0	 0.0	 1	 -30.0	 30.0;
	35378	 35392	 1.45658e-05	 0.000260345	 0.0184769	 1925.0	 1925.0	 1925.0	 0.0	 0.0	 1	 -30.0	 30.0;
	35378	 39326	 0.000286393	 0.00530645	 0.350495	 1216.0	 1216.0	 1216.0	 0.0	 0.0	 1	 -30.0	 30.0;
	35378	 75493	 1e-07	 0.0001	 0.0	 1450.0	 1812.5	 2175.0	 0.0	 0.0	 1	 -30.0	 30.0;
	35378	 75493	 1e-07	 0.0001	 0.0	 1450.0	 1812.5	 2175.0	 0.0	 0.0	 1	 -30.0	 30.0;
	35379	 38861	 3.92654e-05	 0.000701822	 0.0498093	 1273.0	 1273.0	 1273.0	 0.0	 0.0	 1	 -30.0	 30.0;
	35379	 39326	 0.000361236	 0.00645983	 0.458799	 1216.0	 1216.0	 1216.0	 0.0	 0.0	 1	 -30.0	 30.0;
	35379	 75495	 1e-07	 0.0001	 0.0	 1250.0	 1562.5	 1875.0	 0.0	 0.0	 1	 -30.0	 30.0;
	35379	 75495	 1e-07	 0.0001	 0.0	 1250.0	 1562.5	 1875.0	 0.0	 0.0	 1	 -30.0	 30.0;
	35380	 36691	 0.00217813	 0.0397097	 2.90163	 1216.0	 1216.0	 1216.0	 0.0	 0.0	 1	 -30.0	 30.0;
	35380	 38396	 0.000131325	 0.00234742	 0.166615	 1216.0	 1216.0	 1216.0	 0.0	 0.0	 1	 -30.0	 30.0;
	35380	 39084	 0.000140834	 0.00251741	 0.178683	 1703.0	 1703.0	 1703.0	 0.0	 0.0	 1	 -30.0	 30.0;
	35380	 75498	 1e-07	 0.0001	 0.0	 1200.0	 1500.0	 1800.0	 0.0	 0.0	 1	 -30.0	 30.0;
	35381	 38861	 0.0003525	 0.00630347	 0.447677	 1216.0	 1216.0	 1216.0	 0.0	 0.0	 1	 -30.0	 30.0;
	35381	 39396	 0.00146511	 0.0273686	 1.82974	 1801.0	 1801.0	 1801.0	 0.0	 0.0	 1	 -30.0	 30.0;
	35381	 75501	 1e-07	 0.0001	 0.0	 650.0	 812.5	 975.0	 0.0	 0.0	 1	 -30.0	 30.0;
	35382	 39636	 8.02344e-05	 0.00143412	 0.101785	 1448.0	 1448.0	 1448.0	 0.0	 0.0	 1	 -30.0	 30.0;
	35382	 75505	 1e-07	 0.0001	 0.0	 750.0	 937.5	 1125.0	 0.0	 0.0	 1	 -30.0	 30.0;
	35382	 75505	 1e-07	 0.0001	 0.0	 750.0	 937.5	 1125.0	 0.0	 0.0	 1	 -30.0	 30.0;
	35383	 39658	 0.0016754	 0.0119863	 0.438741	 795.0	 795.0	 795.0	 0.0	 0.0	 1	 -30.0	 30.0;
	35383	 76323	 0.00134012	 0.00983351	 0.341487	 795.0	 795.0	 795.0	 0.0	 0.0	 1	 -30.0	 30.0;
	35384	 38801	 0.00192771	 0.0141539	 0.491957	 795.0	 795.0	 795.0	 0.0	 0.0	 1	 -30.0	 30.0;
	35384	 39658	 6.97151e-05	 0.000498317	 0.0182165	 795.0	 795.0	 795.0	 0.0	 0.0	 1	 -30.0	 30.0;
	35384	 39665	 0.000237284	 0.00169612	 0.0620048	 795.0	 795.0	 795.0	 0.0	 0.0	 1	 -30.0	 30.0;
	35385	 38944	 0.00368264	 0.0264391	 0.972679	 795.0	 795.0	 795.0	 0.0	 0.0	 1	 -30.0	 30.0;
	35385	 39807	 0.000379745	 0.00278503	 0.0966416	 795.0	 795.0	 795.0	 0.0	 0.0	 1	 -30.0	 30.0;
	35386	 39334	 6.36724e-05	 0.00113808	 0.0807723	 1320.0	 1320.0	 1320.0	 0.0	 0.0	 1	 -30.0	 30.0;
	35386	 39338	 0.000192234	 0.0035612	 0.23516	 3959.0	 3959.0	 3959.0	 0.0	 0.0	 1	 -30.0	 30.0;
	35387	 36623	 0.00173861	 0.0314556	 2.27297	 1216.0	 1216.0	 1216.0	 0.0	 0.0	 1	 -30.0	 30.0;
	35387	 39538	 0.000764861	 0.0137016	 0.975666	 1573.0	 1573.0	 1573.0	 0.0	 0.0	 1	 -30.0	 30.0;
	35387	 39567	 0.000685001	 0.0122655	 0.872823	 1387.0	 1387.0	 1387.0	 0.0	 0.0	 1	 -30.0	 30.0;
	35387	 75513	 1e-07	 0.0001	 0.0	 1250.0	 1562.5	 1875.0	 0.0	 0.0	 1	 -30.0	 30.0;
	35387	 75513	 1e-07	 0.0001	 0.0	 1250.0	 1562.5	 1875.0	 0.0	 0.0	 1	 -30.0	 30.0;
	35388	 38972	 0.000236146	 0.0042217	 0.299712	 1925.0	 1925.0	 1925.0	 0.0	 0.0	 1	 -30.0	 30.0;
	35388	 38975	 5.27743e-05	 0.000943283	 0.0669466	 2896.0	 2896.0	 2896.0	 0.0	 0.0	 1	 -30.0	 30.0;
	35388	 39183	 0.000960665	 0.0172319	 1.22946	 1216.0	 1216.0	 1216.0	 0.0	 0.0	 1	 -30.0	 30.0;
	35389	 38944	 0.000345499	 0.00246969	 0.0902869	 795.0	 795.0	 795.0	 0.0	 0.0	 1	 -30.0	 30.0;
	35389	 39182	 0.00119296	 0.00853102	 0.312065	 795.0	 795.0	 795.0	 0.0	 0.0	 1	 -30.0	 30.0;
	35389	 39568	 0.00213429	 0.0152779	 0.559681	 795.0	 795.0	 795.0	 0.0	 0.0	 1	 -30.0	 30.0;
	35390	 39721	 0.00063357	 0.00432118	 0.03939	 549.0	 549.0	 549.0	 0.0	 0.0	 1	 -30.0	 30.0;
	35390	 39858	 0.000483277	 0.00335984	 0.0294605	 549.0	 549.0	 549.0	 0.0	 0.0	 1	 -30.0	 30.0;
	35391	 38453	 0.0069818	 0.0187439	 0.00424803	 118.0	 118.0	 118.0	 0.0	 0.0	 1	 -30.0	 30.0;
	35391	 38454	 0.0107273	 0.0283512	 0.00663626	 118.0	 118.0	 118.0	 0.0	 0.0	 1	 -30.0	 30.0;
	35391	 39154	 0.0244353	 0.0614352	 0.0159191	 118.0	 118.0	 118.0	 0.0	 0.0	 1	 -30.0	 30.0;
	35391	 39156	 0.0179641	 0.0570493	 0.0160074	 142.0	 142.0	 142.0	 0.0	 0.0	 1	 -30.0	 30.0;
	35392	 39334	 0.000416121	 0.00744253	 0.528721	 1756.0	 1756.0	 1756.0	 0.0	 0.0	 1	 -30.0	 30.0;
	35393	 37495	 0.0274598	 0.0750387	 0.020399	 128.0	 128.0	 128.0	 0.0	 0.0	 1	 -30.0	 30.0;
	35393	 38764	 0.0731633	 0.184226	 0.0478204	 118.0	 118.0	 118.0	 0.0	 0.0	 1	 -30.0	 30.0;
	35394	 38428	 0.000332831	 0.00595143	 0.422643	 1216.0	 1216.0	 1216.0	 0.0	 0.0	 1	 -30.0	 30.0;
	35395	 39670	 3.4858e-05	 0.000623046	 0.0442183	 1216.0	 1216.0	 1216.0	 0.0	 0.0	 1	 -30.0	 30.0;
	35395	 75527	 1e-07	 0.0001	 0.0	 400.0	 500.0	 600.0	 0.0	 0.0	 1	 -30.0	 30.0;
	35395	 75527	 1e-07	 0.0001	 0.0	 400.0	 500.0	 600.0	 0.0	 0.0	 1	 -30.0	 30.0;
	35396	 38435	 0.0135689	 0.0430883	 0.012089	 142.0	 142.0	 142.0	 0.0	 0.0	 1	 -30.0	 30.0;
	35396	 39229	 0.0126139	 0.0333379	 0.00780364	 118.0	 118.0	 118.0	 0.0	 0.0	 1	 -30.0	 30.0;
	35397	 38768	 0.0319177	 0.078127	 0.00133583	 59.0	 59.0	 59.0	 0.0	 0.0	 1	 -30.0	 30.0;
	35397	 39136	 0.162731	 0.418533	 0.00648123	 59.0	 59.0	 59.0	 0.0	 0.0	 1	 -30.0	 30.0;
	35397	 76301	 0.0537755	 0.124833	 0.00237705	 59.0	 59.0	 59.0	 0.0	 0.0	 1	 -30.0	 30.0;
	35397	 76455	 0.106447	 0.315094	 0.00366414	 59.0	 59.0	 59.0	 0.0	 0.0	 1	 -30.0	 30.0;
	35398	 38730	 0.0220079	 0.0599267	 0.0132048	 118.0	 118.0	 118.0	 0.0	 0.0	 1	 -30.0	 30.0;
	35398	 38731	 0.0175882	 0.0398995	 0.0127368	 118.0	 118.0	 118.0	 0.0	 0.0	 1	 -30.0	 30.0;
	35398	 39318	 0.0166513	 0.0447067	 0.010133	 118.0	 118.0	 118.0	 0.0	 0.0	 1	 -30.0	 30.0;
	35398	 39652	 0.0191079	 0.0496114	 0.0120428	 118.0	 118.0	 118.0	 0.0	 0.0	 1	 -30.0	 30.0;
	35398	 39653	 0.0140944	 0.0483534	 0.0115853	 142.0	 142.0	 142.0	 0.0	 0.0	 1	 -30.0	 30.0;
...